<?xml version="1.0" encoding="UTF-8"?>

<!-- generated on 2025-11-20 12:44:24 by Eclipse SUMO netedit Version 1.22.0
<neteditConfiguration xmlns:xsi="http://www.w3.org/2001/XMLSchema-instance" xsi:noNamespaceSchemaLocation="http://sumo.dlr.de/xsd/neteditConfiguration.xsd">

    <input>
        <sumocfg-file value="C:\Users\USUARIO(A)\Documents\GitHub\adaptative-traffic-lights\UFAL\ufalConfig.sumocfg"/>
        <sumo-net-file value="C:\Users\USUARIO(A)\Documents\GitHub\adaptative-traffic-lights\UFAL\ufalNetwork.net.xml"/>
    </input>

    <output>
        <output-file value="C:\Users\USUARIO(A)\Documents\GitHub\adaptative-traffic-lights\UFAL\ufalNetwork.net.xml"/>
    </output>

    <processing>
        <geometry.min-radius.fix.railways value="false"/>
        <geometry.max-grade.fix value="false"/>
        <offset.disable-normalization value="true"/>
        <lefthand value="0"/>
    </processing>

    <junctions>
        <no-turnarounds value="true"/>
        <junctions.corner-detail value="5"/>
        <junctions.limit-turn-speed value="5.50"/>
        <rectangular-lane-cut value="0"/>
    </junctions>

    <pedestrian>
        <walkingareas value="0"/>
    </pedestrian>

</neteditConfiguration>
-->

<net version="1.20" junctionCornerDetail="5" limitTurnSpeed="5.50" xmlns:xsi="http://www.w3.org/2001/XMLSchema-instance" xsi:noNamespaceSchemaLocation="http://sumo.dlr.de/xsd/net_file.xsd">

    <location netOffset="0.00,0.00" convBoundary="190641.90,-1061243.33,198314.62,-1054473.60" origBoundary="-35.817751,-9.650921,-35.733436,-9.528110" projParameter="+proj=utm +zone=25 +ellps=WGS84 +datum=WGS84 +units=m +no_defs"/>

    <type id="highway.cycleway" priority="1" numLanes="1" speed="5.56" allow="bicycle" oneway="0" width="2.00"/>
    <type id="highway.footway" priority="1" numLanes="1" speed="2.78" allow="pedestrian" oneway="1" width="2.00"/>
    <type id="highway.path" priority="1" numLanes="1" speed="5.56" allow="pedestrian bicycle" oneway="0" width="2.00"/>
    <type id="highway.residential" priority="3" numLanes="1" speed="13.89" disallow="tram rail_urban rail rail_electric rail_fast ship container cable_car subway aircraft wheelchair scooter drone" oneway="0"/>
    <type id="highway.service" priority="1" numLanes="1" speed="5.56" allow="pedestrian delivery bicycle" oneway="0"/>
    <type id="highway.steps" priority="1" numLanes="1" speed="1.39" allow="pedestrian" oneway="1" width="2.00"/>
    <type id="highway.tertiary" priority="10" numLanes="1" speed="22.22" disallow="tram rail_urban rail rail_electric rail_fast ship container cable_car subway aircraft wheelchair scooter drone" oneway="0"/>
    <type id="highway.trunk" priority="13" numLanes="2" speed="27.78" disallow="pedestrian bicycle tram rail_urban rail rail_electric rail_fast ship container cable_car subway aircraft wheelchair scooter drone" oneway="0"/>
    <type id="highway.trunk_link" priority="8" numLanes="1" speed="22.22" disallow="pedestrian bicycle tram rail_urban rail rail_electric rail_fast ship container cable_car subway aircraft wheelchair scooter drone" oneway="0"/>
    <type id="highway.unclassified" priority="4" numLanes="1" speed="13.89" disallow="tram rail_urban rail rail_electric rail_fast ship container cable_car subway aircraft wheelchair scooter drone" oneway="0"/>

    <edge id=":10083879948_0" function="internal">
        <lane id=":10083879948_0_0" index="0" allow="pedestrian delivery bicycle" speed="5.24" length="5.24" shape="195327.33,-1057351.41 195326.05,-1057351.85 195324.89,-1057351.75 195323.85,-1057351.12 195322.91,-1057349.94"/>
    </edge>
    <edge id=":10083879948_1" function="internal">
        <lane id=":10083879948_1_0" index="0" disallow="tram rail_urban rail rail_electric rail_fast ship container cable_car subway aircraft wheelchair scooter drone" speed="8.33" length="9.41" shape="195327.33,-1057351.41 195319.02,-1057355.84"/>
        <lane id=":10083879948_1_1" index="1" disallow="tram rail_urban rail rail_electric rail_fast ship container cable_car subway aircraft wheelchair scooter drone" speed="8.33" length="9.41" shape="195328.83,-1057354.24 195320.52,-1057358.66"/>
    </edge>
    <edge id=":10083879948_3" function="internal">
        <lane id=":10083879948_3_0" index="0" allow="pedestrian delivery bicycle" speed="4.98" length="5.07" shape="195320.18,-1057351.61 195320.73,-1057352.89 195320.72,-1057354.03 195320.15,-1057355.01 195319.02,-1057355.84"/>
    </edge>
    <edge id=":10083896468_0" function="internal">
        <lane id=":10083896468_0_0" index="0" allow="pedestrian delivery bicycle" speed="4.09" length="1.46" shape="194666.33,-1057515.14 194665.97,-1057515.05 194665.65,-1057514.88 194665.39,-1057514.65 194665.17,-1057514.34"/>
    </edge>
    <edge id=":10083896468_1" function="internal">
        <lane id=":10083896468_1_0" index="0" allow="pedestrian delivery bicycle" speed="5.56" length="4.39" shape="194662.38,-1057515.92 194663.04,-1057516.84 194663.84,-1057517.54 194664.79,-1057518.03 194665.88,-1057518.31"/>
    </edge>
    <edge id=":11256815423_0" function="internal">
        <lane id=":11256815423_0_0" index="0" disallow="tram rail_urban rail rail_electric rail_fast ship container cable_car subway aircraft wheelchair scooter drone" speed="8.33" length="0.10" shape="195257.64,-1057219.70 195257.64,-1057219.70"/>
    </edge>
    <edge id=":11256815423_1" function="internal">
        <lane id=":11256815423_1_0" index="0" disallow="tram rail_urban rail rail_electric rail_fast ship container cable_car subway aircraft wheelchair scooter drone" speed="8.33" length="0.10" shape="195259.12,-1057222.54 195259.12,-1057222.54"/>
    </edge>
    <edge id=":12574660955_0" function="internal">
        <lane id=":12574660955_0_0" index="0" disallow="pedestrian bicycle tram rail_urban rail rail_electric rail_fast ship container cable_car subway aircraft wheelchair scooter drone" speed="16.67" length="5.00" shape="194839.02,-1058148.22 194841.37,-1058152.63"/>
        <lane id=":12574660955_0_1" index="1" disallow="pedestrian bicycle tram rail_urban rail rail_electric rail_fast ship container cable_car subway aircraft wheelchair scooter drone" speed="16.67" length="5.00" shape="194841.84,-1058146.72 194844.19,-1058151.13"/>
        <lane id=":12574660955_0_2" index="2" disallow="pedestrian bicycle tram rail_urban rail rail_electric rail_fast ship container cable_car subway aircraft wheelchair scooter drone" speed="16.67" length="5.00" shape="194844.66,-1058145.21 194847.02,-1058149.62"/>
    </edge>
    <edge id=":12574660956_0" function="internal">
        <lane id=":12574660956_0_0" index="0" disallow="pedestrian bicycle tram rail_urban rail rail_electric rail_fast ship container cable_car subway aircraft wheelchair scooter drone" speed="16.67" length="5.34" shape="194867.86,-1058138.95 194865.52,-1058134.15"/>
        <lane id=":12574660956_0_1" index="1" disallow="pedestrian bicycle tram rail_urban rail rail_electric rail_fast ship container cable_car subway aircraft wheelchair scooter drone" speed="16.67" length="5.34" shape="194864.98,-1058140.35 194862.64,-1058135.55"/>
        <lane id=":12574660956_0_2" index="2" disallow="pedestrian bicycle tram rail_urban rail rail_electric rail_fast ship container cable_car subway aircraft wheelchair scooter drone" speed="16.67" length="5.34" shape="194862.10,-1058141.75 194859.77,-1058136.95"/>
    </edge>
    <edge id=":12574660960_0" function="internal">
        <lane id=":12574660960_0_0" index="0" disallow="pedestrian bicycle tram rail_urban rail rail_electric rail_fast ship container cable_car subway aircraft wheelchair scooter drone" speed="16.67" length="5.00" shape="194761.08,-1057989.71 194763.33,-1057994.18"/>
        <lane id=":12574660960_0_1" index="1" disallow="pedestrian bicycle tram rail_urban rail rail_electric rail_fast ship container cable_car subway aircraft wheelchair scooter drone" speed="16.67" length="5.00" shape="194763.94,-1057988.28 194766.19,-1057992.75"/>
        <lane id=":12574660960_0_2" index="2" disallow="pedestrian bicycle tram rail_urban rail rail_electric rail_fast ship container cable_car subway aircraft wheelchair scooter drone" speed="16.67" length="5.00" shape="194766.80,-1057986.84 194769.05,-1057991.31"/>
    </edge>
    <edge id=":12574660961_0" function="internal">
        <lane id=":12574660961_0_0" index="0" disallow="pedestrian bicycle tram rail_urban rail rail_electric rail_fast ship container cable_car subway aircraft wheelchair scooter drone" speed="16.67" length="5.06" shape="194789.22,-1057981.06 194786.94,-1057976.54"/>
        <lane id=":12574660961_0_1" index="1" disallow="pedestrian bicycle tram rail_urban rail rail_electric rail_fast ship container cable_car subway aircraft wheelchair scooter drone" speed="16.67" length="5.06" shape="194786.37,-1057982.51 194784.08,-1057977.99"/>
        <lane id=":12574660961_0_2" index="2" disallow="pedestrian bicycle tram rail_urban rail rail_electric rail_fast ship container cable_car subway aircraft wheelchair scooter drone" speed="16.67" length="5.06" shape="194783.51,-1057983.95 194781.23,-1057979.44"/>
    </edge>
    <edge id=":12574660962_0" function="internal">
        <lane id=":12574660962_0_0" index="0" allow="pedestrian bicycle" speed="5.56" length="5.16" width="2.00" shape="194793.72,-1057978.67 194791.21,-1057974.16"/>
    </edge>
    <edge id=":12574660962_1" function="internal">
        <lane id=":12574660962_1_0" index="0" allow="pedestrian bicycle" speed="5.56" length="5.05" width="2.00" shape="194789.49,-1057975.18 194791.94,-1057979.60"/>
    </edge>
    <edge id=":12574660964_0" function="internal">
        <lane id=":12574660964_0_0" index="0" disallow="pedestrian bicycle tram rail_urban rail rail_electric rail_fast ship container cable_car subway aircraft wheelchair scooter drone" speed="16.67" length="4.70" shape="194676.21,-1057757.75 194674.07,-1057753.58"/>
        <lane id=":12574660964_0_1" index="1" disallow="pedestrian bicycle tram rail_urban rail rail_electric rail_fast ship container cable_car subway aircraft wheelchair scooter drone" speed="16.67" length="4.70" shape="194673.36,-1057759.21 194671.22,-1057755.04"/>
        <lane id=":12574660964_0_2" index="2" disallow="pedestrian bicycle tram rail_urban rail rail_electric rail_fast ship container cable_car subway aircraft wheelchair scooter drone" speed="16.67" length="4.70" shape="194670.51,-1057760.67 194668.37,-1057756.50"/>
        <lane id=":12574660964_0_3" index="3" disallow="pedestrian bicycle tram rail_urban rail rail_electric rail_fast ship container cable_car subway aircraft wheelchair scooter drone" speed="16.67" length="4.70" shape="194667.67,-1057762.13 194665.52,-1057757.95"/>
    </edge>
    <edge id=":12574660965_0" function="internal">
        <lane id=":12574660965_0_0" index="0" disallow="tram rail_urban rail rail_electric rail_fast ship container cable_car subway aircraft wheelchair scooter drone" speed="8.33" length="3.83" shape="194656.57,-1057706.62 194653.23,-1057708.50"/>
        <lane id=":12574660965_0_1" index="1" disallow="tram rail_urban rail rail_electric rail_fast ship container cable_car subway aircraft wheelchair scooter drone" speed="8.33" length="3.83" shape="194658.14,-1057709.41 194654.79,-1057711.29"/>
    </edge>
    <edge id=":12574660965_2" function="internal">
        <lane id=":12574660965_2_0" index="0" allow="pedestrian bicycle" speed="4.27" length="3.76" width="2.00" shape="194657.47,-1057713.42 194656.75,-1057712.24 194656.06,-1057711.48 194655.41,-1057711.17 194654.79,-1057711.29"/>
    </edge>
    <edge id=":12574660966_0" function="internal">
        <lane id=":12574660966_0_0" index="0" allow="pedestrian bicycle" speed="4.65" length="4.53" width="2.00" shape="194662.43,-1057722.79 194661.93,-1057721.52 194661.90,-1057720.44 194662.32,-1057719.57 194663.21,-1057718.89"/>
    </edge>
    <edge id=":12574660966_1" function="internal">
        <lane id=":12574660966_1_0" index="0" allow="pedestrian bicycle" speed="5.56" length="9.44" width="2.00" shape="194662.43,-1057722.79 194658.02,-1057714.45"/>
    </edge>
    <edge id=":12574660966_2" function="internal">
        <lane id=":12574660966_2_0" index="0" allow="pedestrian bicycle" speed="4.24" length="3.21" width="2.00" shape="194659.86,-1057720.62 194660.66,-1057723.73"/>
    </edge>
    <edge id=":12574660966_3" function="internal">
        <lane id=":12574660966_3_0" index="0" disallow="tram rail_urban rail rail_electric rail_fast ship container cable_car subway aircraft wheelchair scooter drone" speed="8.33" length="3.78" shape="194659.86,-1057720.62 194663.21,-1057718.89"/>
        <lane id=":12574660966_3_1" index="1" disallow="tram rail_urban rail rail_electric rail_fast ship container cable_car subway aircraft wheelchair scooter drone" speed="8.33" length="3.78" shape="194658.39,-1057717.78 194661.74,-1057716.05"/>
    </edge>
    <edge id=":12574660966_5" function="internal">
        <lane id=":12574660966_5_0" index="0" allow="pedestrian bicycle" speed="4.43" length="3.64" width="2.00" shape="194658.39,-1057717.78 194658.78,-1057717.36 194658.84,-1057716.67 194658.59,-1057715.70 194658.02,-1057714.45"/>
    </edge>
    <edge id=":12574660966_6" function="internal">
        <lane id=":12574660966_6_0" index="0" allow="pedestrian bicycle" speed="5.56" length="9.44" width="2.00" shape="194656.25,-1057715.38 194660.66,-1057723.73"/>
    </edge>
    <edge id=":12574660966_7" function="internal">
        <lane id=":12574660966_7_0" index="0" allow="pedestrian bicycle" speed="5.40" length="6.23" width="2.00" shape="194656.25,-1057715.38 194657.14,-1057716.46 194658.35,-1057716.93 194659.88,-1057716.79 194661.74,-1057716.05"/>
    </edge>
    <edge id=":12574660970_0" function="internal">
        <lane id=":12574660970_0_0" index="0" allow="pedestrian bicycle" speed="5.11" length="4.97" width="2.00" shape="194783.72,-1057955.90 194782.51,-1057956.27 194781.43,-1057956.14 194780.45,-1057955.48 194779.60,-1057954.32"/>
    </edge>
    <edge id=":12574660970_1" function="internal">
        <lane id=":12574660970_1_0" index="0" allow="pedestrian delivery bicycle" speed="5.56" length="5.26" shape="194783.72,-1057955.90 194779.01,-1057958.25"/>
    </edge>
    <edge id=":12574660970_2" function="internal">
        <lane id=":12574660970_2_0" index="0" allow="pedestrian bicycle" speed="5.56" length="9.04" width="2.00" shape="194783.72,-1057955.90 194782.02,-1057957.20 194781.28,-1057958.93 194781.51,-1057961.09 194782.69,-1057963.69"/>
    </edge>
    <edge id=":12574660970_3" function="internal">
        <lane id=":12574660970_3_0" index="0" allow="pedestrian bicycle" speed="4.58" length="4.59" width="2.00" shape="194784.41,-1057962.67 194783.85,-1057961.40 194783.79,-1057960.33 194784.22,-1057959.45 194785.14,-1057958.77"/>
    </edge>
    <edge id=":12574660970_4" function="internal">
        <lane id=":12574660970_4_0" index="0" allow="pedestrian bicycle" speed="5.56" length="9.63" width="2.00" shape="194784.41,-1057962.67 194779.60,-1057954.32"/>
    </edge>
    <edge id=":12574660970_5" function="internal">
        <lane id=":12574660970_5_0" index="0" allow="pedestrian bicycle" speed="5.56" length="7.50" width="2.00" shape="194784.41,-1057962.67 194782.86,-1057960.33 194781.44,-1057958.81 194780.15,-1057958.12 194779.01,-1057958.25"/>
    </edge>
    <edge id=":12574660970_6" function="internal">
        <lane id=":12574660970_6_0" index="0" allow="pedestrian bicycle" speed="4.53" length="3.63" width="2.00" shape="194780.43,-1057961.11 194781.09,-1057961.20 194781.71,-1057961.91 194782.25,-1057962.86 194782.69,-1057963.69"/>
    </edge>
    <edge id=":12574660970_7" function="internal">
        <lane id=":12574660970_7_0" index="0" allow="pedestrian delivery bicycle" speed="5.56" length="5.26" shape="194780.43,-1057961.11 194785.14,-1057958.77"/>
    </edge>
    <edge id=":12574660970_8" function="internal">
        <lane id=":12574660970_8_0" index="0" allow="pedestrian bicycle" speed="5.56" length="7.48" width="2.00" shape="194780.43,-1057961.11 194781.25,-1057960.25 194781.39,-1057958.83 194780.84,-1057956.86 194779.60,-1057954.32"/>
    </edge>
    <edge id=":12574660970_9" function="internal">
        <lane id=":12574660970_9_0" index="0" allow="pedestrian bicycle" speed="4.07" length="3.40" width="2.00" shape="194777.86,-1057955.30 194778.37,-1057956.07 194778.95,-1057956.93 194779.27,-1057957.72 194779.01,-1057958.25"/>
    </edge>
    <edge id=":12574660970_10" function="internal">
        <lane id=":12574660970_10_0" index="0" allow="pedestrian bicycle" speed="5.56" length="9.68" width="2.00" shape="194777.86,-1057955.30 194782.69,-1057963.69"/>
    </edge>
    <edge id=":12574660970_11" function="internal">
        <lane id=":12574660970_11_0" index="0" allow="pedestrian bicycle" speed="5.56" length="9.04" width="2.00" shape="194777.86,-1057955.30 194779.48,-1057957.60 194781.23,-1057958.94 194783.12,-1057959.33 194785.14,-1057958.77"/>
    </edge>
    <edge id=":12574660971_0" function="internal">
        <lane id=":12574660971_0_0" index="0" allow="pedestrian bicycle" speed="4.11" length="3.38" width="2.00" shape="194837.87,-1058067.91 194838.35,-1058068.68 194838.88,-1058069.56 194839.16,-1058070.35 194838.88,-1058070.88"/>
        <lane id=":12574660971_0_1" index="1" allow="pedestrian bicycle" speed="5.45" length="6.45" width="2.00" shape="194837.87,-1058067.91 194838.57,-1058069.13 194839.61,-1058070.98 194840.39,-1058072.75 194840.33,-1058073.73"/>
    </edge>
    <edge id=":1603830874_0" function="internal">
        <lane id=":1603830874_0_0" index="0" disallow="pedestrian bicycle tram rail_urban rail rail_electric rail_fast ship container cable_car subway aircraft wheelchair scooter drone" speed="16.67" length="0.30" shape="193103.77,-1055102.70 193103.94,-1055102.97"/>
        <lane id=":1603830874_0_1" index="1" disallow="pedestrian bicycle tram rail_urban rail rail_electric rail_fast ship container cable_car subway aircraft wheelchair scooter drone" speed="16.67" length="0.30" shape="193106.51,-1055101.05 193106.67,-1055101.31"/>
        <lane id=":1603830874_0_2" index="2" disallow="pedestrian bicycle tram rail_urban rail rail_electric rail_fast ship container cable_car subway aircraft wheelchair scooter drone" speed="16.67" length="0.30" shape="193109.26,-1055099.41 193109.40,-1055099.64"/>
    </edge>
    <edge id=":1691833911_0" function="internal">
        <lane id=":1691833911_0_0" index="0" disallow="tram rail_urban rail rail_electric rail_fast ship container cable_car subway aircraft wheelchair scooter drone" speed="6.51" length="9.03" shape="195010.60,-1057534.78 195012.92,-1057533.93 195014.96,-1057534.02 195016.71,-1057535.06 195018.18,-1057537.05"/>
    </edge>
    <edge id=":1691833911_1" function="internal">
        <lane id=":1691833911_1_0" index="0" disallow="tram rail_urban rail rail_electric rail_fast ship container cable_car subway aircraft wheelchair scooter drone" speed="8.33" length="11.45" shape="195010.60,-1057534.78 195020.57,-1057528.97"/>
        <lane id=":1691833911_1_1" index="1" disallow="tram rail_urban rail rail_electric rail_fast ship container cable_car subway aircraft wheelchair scooter drone" speed="8.33" length="11.45" shape="195009.07,-1057531.97 195018.87,-1057526.25"/>
    </edge>
    <edge id=":1691833911_3" function="internal">
        <lane id=":1691833911_3_0" index="0" disallow="tram rail_urban rail rail_electric rail_fast ship container cable_car subway aircraft wheelchair scooter drone" speed="8.33" length="13.67" shape="195011.76,-1057524.98 195018.18,-1057537.05"/>
    </edge>
    <edge id=":1691833911_4" function="internal">
        <lane id=":1691833911_4_0" index="0" disallow="tram rail_urban rail rail_electric rail_fast ship container cable_car subway aircraft wheelchair scooter drone" speed="6.13" length="8.37" shape="195011.76,-1057524.98 195013.05,-1057526.67 195014.67,-1057527.45 195016.61,-1057527.31 195018.87,-1057526.25"/>
    </edge>
    <edge id=":1691833925_0" function="internal">
        <lane id=":1691833925_0_0" index="0" disallow="tram rail_urban rail rail_electric rail_fast ship container cable_car subway aircraft wheelchair scooter drone" speed="6.50" length="9.05" shape="195524.60,-1057266.01 195523.75,-1057263.67 195523.85,-1057261.63 195524.91,-1057259.88 195526.91,-1057258.43"/>
    </edge>
    <edge id=":1691833925_1" function="internal">
        <lane id=":1691833925_1_0" index="0" disallow="tram rail_urban rail rail_electric rail_fast ship container cable_car subway aircraft wheelchair scooter drone" speed="11.11" length="11.69" shape="195524.60,-1057266.01 195519.01,-1057255.74"/>
    </edge>
    <edge id=":1691833925_2" function="internal">
        <lane id=":1691833925_2_0" index="0" disallow="tram rail_urban rail rail_electric rail_fast ship container cable_car subway aircraft wheelchair scooter drone" speed="6.48" length="9.03" shape="195514.20,-1057265.26 195516.52,-1057264.39 195518.56,-1057264.47 195520.31,-1057265.51 195521.77,-1057267.52"/>
    </edge>
    <edge id=":1691833925_3" function="internal">
        <lane id=":1691833925_3_0" index="0" disallow="tram rail_urban rail rail_electric rail_fast ship container cable_car subway aircraft wheelchair scooter drone" speed="8.33" length="14.46" shape="195514.20,-1057265.26 195526.91,-1057258.43"/>
        <lane id=":1691833925_3_1" index="1" disallow="tram rail_urban rail rail_electric rail_fast ship container cable_car subway aircraft wheelchair scooter drone" speed="8.33" length="14.46" shape="195512.66,-1057262.46 195525.42,-1057255.60"/>
    </edge>
    <edge id=":1691833925_5" function="internal">
        <lane id=":1691833925_5_0" index="0" disallow="tram rail_urban rail rail_electric rail_fast ship container cable_car subway aircraft wheelchair scooter drone" speed="6.76" length="9.88" shape="195512.66,-1057262.46 195515.96,-1057260.44 195518.12,-1057258.65 195519.14,-1057257.09 195519.01,-1057255.74"/>
    </edge>
    <edge id=":1691833925_6" function="internal">
        <lane id=":1691833925_6_0" index="0" disallow="tram rail_urban rail rail_electric rail_fast ship container cable_car subway aircraft wheelchair scooter drone" speed="11.11" length="11.61" shape="195516.23,-1057257.31 195521.77,-1057267.52"/>
    </edge>
    <edge id=":1691833925_7" function="internal">
        <lane id=":1691833925_7_0" index="0" disallow="tram rail_urban rail rail_electric rail_fast ship container cable_car subway aircraft wheelchair scooter drone" speed="6.87" length="1.34" shape="195516.23,-1057257.31 195517.31,-1057258.11"/>
    </edge>
    <edge id=":1691833925_8" function="internal">
        <lane id=":1691833925_8_0" index="0" disallow="tram rail_urban rail rail_electric rail_fast ship container cable_car subway aircraft wheelchair scooter drone" speed="6.87" length="8.61" shape="195517.31,-1057258.11 195519.20,-1057258.09 195521.91,-1057257.25 195525.42,-1057255.60"/>
    </edge>
    <edge id=":1691833931_0" function="internal">
        <lane id=":1691833931_0_0" index="0" disallow="tram rail_urban rail rail_electric rail_fast ship container cable_car subway aircraft wheelchair scooter drone" speed="7.99" length="14.22" shape="195452.14,-1057127.65 195449.95,-1057124.42 195447.25,-1057122.68 195444.05,-1057122.43 195440.35,-1057123.66"/>
    </edge>
    <edge id=":1691833931_1" function="internal">
        <lane id=":1691833931_1_0" index="0" disallow="tram rail_urban rail rail_electric rail_fast ship container cable_car subway aircraft wheelchair scooter drone" speed="6.49" length="9.03" shape="195441.78,-1057126.52 195444.13,-1057125.74 195446.16,-1057125.90 195447.88,-1057127.00 195449.27,-1057129.05"/>
    </edge>
    <edge id=":1796531998_0" function="internal">
        <lane id=":1796531998_0_0" index="0" disallow="tram rail_urban rail rail_electric rail_fast ship container cable_car subway aircraft wheelchair scooter drone" speed="6.67" length="9.23" shape="195895.29,-1057227.65 195892.88,-1057228.46 195890.78,-1057228.34 195888.97,-1057227.29 195887.46,-1057225.30"/>
    </edge>
    <edge id=":1796531998_1" function="internal">
        <lane id=":1796531998_1_0" index="0" disallow="tram rail_urban rail rail_electric rail_fast ship container cable_car subway aircraft wheelchair scooter drone" speed="8.33" length="10.60" shape="195895.29,-1057227.65 195885.91,-1057232.57"/>
    </edge>
    <edge id=":1796531998_2" function="internal">
        <lane id=":1796531998_2_0" index="0" disallow="tram rail_urban rail rail_electric rail_fast ship container cable_car subway aircraft wheelchair scooter drone" speed="6.48" length="9.05" shape="195894.28,-1057238.04 195893.46,-1057235.69 195893.59,-1057233.65 195894.68,-1057231.93 195896.72,-1057230.52"/>
    </edge>
    <edge id=":1796531998_3" function="internal">
        <lane id=":1796531998_3_0" index="0" disallow="tram rail_urban rail rail_electric rail_fast ship container cable_car subway aircraft wheelchair scooter drone" speed="11.11" length="14.45" shape="195894.28,-1057238.04 195887.46,-1057225.30"/>
    </edge>
    <edge id=":1796531998_4" function="internal">
        <lane id=":1796531998_4_0" index="0" disallow="tram rail_urban rail rail_electric rail_fast ship container cable_car subway aircraft wheelchair scooter drone" speed="7.10" length="11.20" shape="195894.28,-1057238.04 195892.23,-1057234.75 195890.15,-1057232.74 195888.05,-1057232.02 195885.91,-1057232.57"/>
    </edge>
    <edge id=":1796531998_5" function="internal">
        <lane id=":1796531998_5_0" index="0" disallow="tram rail_urban rail rail_electric rail_fast ship container cable_car subway aircraft wheelchair scooter drone" speed="8.33" length="10.45" shape="195887.46,-1057235.37 195896.72,-1057230.52"/>
    </edge>
    <edge id=":1796531998_6" function="internal">
        <lane id=":1796531998_6_0" index="0" disallow="tram rail_urban rail rail_electric rail_fast ship container cable_car subway aircraft wheelchair scooter drone" speed="7.18" length="11.21" shape="195887.46,-1057235.37 195889.06,-1057233.85 195889.59,-1057231.67 195889.06,-1057228.82 195887.46,-1057225.30"/>
    </edge>
    <edge id=":1796531999_0" function="internal">
        <lane id=":1796531999_0_0" index="0" disallow="tram rail_urban rail rail_electric rail_fast ship container cable_car subway aircraft wheelchair scooter drone" speed="6.07" length="7.79" shape="196005.01,-1057455.95 196006.03,-1057454.94 196006.32,-1057453.43 196005.87,-1057451.43 196004.70,-1057448.92"/>
    </edge>
    <edge id=":1972200219_0" function="internal">
        <lane id=":1972200219_0_0" index="0" disallow="pedestrian bicycle tram rail_urban rail rail_electric rail_fast ship container cable_car subway aircraft wheelchair scooter drone" speed="16.67" length="0.32" shape="193096.92,-1055039.84 193096.80,-1055039.65"/>
        <lane id=":1972200219_0_1" index="1" disallow="pedestrian bicycle tram rail_urban rail rail_electric rail_fast ship container cable_car subway aircraft wheelchair scooter drone" speed="16.67" length="0.32" shape="193094.20,-1055041.54 193094.04,-1055041.26"/>
        <lane id=":1972200219_0_2" index="2" disallow="pedestrian bicycle tram rail_urban rail rail_electric rail_fast ship container cable_car subway aircraft wheelchair scooter drone" speed="16.67" length="0.32" shape="193091.49,-1055043.23 193091.28,-1055042.87"/>
    </edge>
    <edge id=":1972200226_0" function="internal">
        <lane id=":1972200226_0_0" index="0" disallow="pedestrian bicycle tram rail_urban rail rail_electric rail_fast ship container cable_car subway aircraft wheelchair scooter drone" speed="6.93" length="10.11" shape="193034.10,-1054961.59 193031.94,-1054963.35 193030.83,-1054965.37 193030.76,-1054967.66 193031.74,-1054970.20"/>
        <lane id=":1972200226_0_1" index="1" disallow="pedestrian bicycle tram rail_urban rail rail_electric rail_fast ship container cable_car subway aircraft wheelchair scooter drone" speed="6.16" length="7.76" shape="193034.10,-1054961.59 193033.14,-1054962.63 193032.89,-1054964.15 193033.36,-1054966.15 193034.53,-1054968.63"/>
    </edge>
    <edge id=":1972200226_2" function="internal">
        <lane id=":1972200226_2_0" index="0" disallow="pedestrian bicycle tram rail_urban rail rail_electric rail_fast ship container cable_car subway aircraft wheelchair scooter drone" speed="16.67" length="9.30" shape="193024.34,-1054963.78 193028.95,-1054971.77"/>
        <lane id=":1972200226_2_1" index="1" disallow="pedestrian bicycle tram rail_urban rail rail_electric rail_fast ship container cable_car subway aircraft wheelchair scooter drone" speed="16.67" length="9.30" shape="193027.10,-1054962.15 193031.74,-1054970.20"/>
        <lane id=":1972200226_2_2" index="2" disallow="pedestrian bicycle tram rail_urban rail rail_electric rail_fast ship container cable_car subway aircraft wheelchair scooter drone" speed="16.67" length="9.30" shape="193029.85,-1054960.52 193034.53,-1054968.63"/>
    </edge>
    <edge id=":1972200226_5" function="internal">
        <lane id=":1972200226_5_0" index="0" disallow="pedestrian bicycle tram rail_urban rail rail_electric rail_fast ship container cable_car subway aircraft wheelchair scooter drone" speed="6.07" length="7.79" shape="193029.85,-1054960.52 193031.43,-1054962.80 193032.94,-1054964.19 193034.39,-1054964.70 193035.77,-1054964.32"/>
    </edge>
    <edge id=":2090081681_0" function="internal">
        <lane id=":2090081681_0_0" index="0" disallow="pedestrian bicycle tram rail_urban rail rail_electric rail_fast ship container cable_car subway aircraft wheelchair scooter drone" speed="16.67" length="0.27" shape="194014.46,-1056602.77 194014.29,-1056602.47"/>