<?xml version="1.0" encoding="UTF-8"?>

<routes>
    <vType id="bus2" accel="1.0" decel="4.5" sigma="0.5" length="10" maxSpeed="15" />
    <vType id="bus3" accel="1.0" decel="4.5" sigma="0.5" length="12" maxSpeed="15" />
    <vType id="truck4" accel="1.0" decel="4.5" sigma="0.5" length="14" maxSpeed="13" />
    <vType id="truck5" accel="1.0" decel="4.5" sigma="0.5" length="16" maxSpeed="13" />
    <vType id="truck6" accel="1.0" decel="4.5" sigma="0.5" length="18" maxSpeed="13" />
    <vType id="truck7" accel="1.0" decel="4.5" sigma="0.5" length="20" maxSpeed="12" />
    <vType id="truck8" accel="1.0" decel="4.5" sigma="0.5" length="22" maxSpeed="12" />
    <vType id="truck9" accel="1.0" decel="4.5" sigma="0.5" length="24" maxSpeed="12" />
    <vType id="car" accel="1.0" decel="4.5" sigma="0.5" length="5" maxSpeed="25" />
    <vType id="motorcycle" accel="1.0" decel="4.5" sigma="0.5" length="2" maxSpeed="28" />
    <vType id="undefined" accel="1.0" decel="4.5" sigma="0.5" length="6" maxSpeed="20" />

    <route id="route_C" edges="cOrigem cDestino" />
    <route id="route_D" edges="dOrigem dDestino" />

    <vehicle id="bus3C_0" type="bus3" route="route_C" depart="20" />
    <vehicle id="bus3C_1" type="bus3" route="route_C" depart="21" />
    <vehicle id="bus3C_2" type="bus3" route="route_C" depart="22" />
    <vehicle id="bus3C_3" type="bus3" route="route_C" depart="23" />
    <vehicle id="bus3C_4" type="bus3" route="route_C" depart="24" />
    <vehicle id="bus3C_5" type="bus3" route="route_C" depart="25" />
    <vehicle id="bus3C_6" type="bus3" route="route_C" depart="26" />
    <vehicle id="bus3C_7" type="bus3" route="route_C" depart="27" />
    <vehicle id="bus3C_8" type="bus3" route="route_C" depart="28" />
    <vehicle id="bus3C_9" type="bus3" route="route_C" depart="29" />
    <vehicle id="bus3C_10" type="bus3" route="route_C" depart="30" />
    <vehicle id="bus3C_11" type="bus3" route="route_C" depart="31" />
    <vehicle id="bus3C_12" type="bus3" route="route_C" depart="32" />
    <vehicle id="bus3C_13" type="bus3" route="route_C" depart="33" />
    <vehicle id="bus3C_14" type="bus3" route="route_C" depart="34" />
    <vehicle id="bus3C_15" type="bus3" route="route_C" depart="35" />
    <vehicle id="bus3C_16" type="bus3" route="route_C" depart="36" />
    <vehicle id="bus3C_17" type="bus3" route="route_C" depart="37" />
    <vehicle id="bus3C_18" type="bus3" route="route_C" depart="38" />
    <vehicle id="bus3C_19" type="bus3" route="route_C" depart="39" />
    <vehicle id="bus3C_20" type="bus3" route="route_C" depart="20" />
    <vehicle id="bus3C_21" type="bus3" route="route_C" depart="21" />
    <vehicle id="bus3C_22" type="bus3" route="route_C" depart="22" />
    <vehicle id="bus3C_23" type="bus3" route="route_C" depart="23" />
    <vehicle id="bus3C_24" type="bus3" route="route_C" depart="24" />
    <vehicle id="truck4C_0" type="truck4" route="route_C" depart="50" />
    <vehicle id="truck4C_1" type="truck4" route="route_C" depart="51" />
    <vehicle id="truck4C_2" type="truck4" route="route_C" depart="52" />
    <vehicle id="truck4C_3" type="truck4" route="route_C" depart="53" />
    <vehicle id="truck4C_4" type="truck4" route="route_C" depart="54" />
    <vehicle id="truck4C_5" type="truck4" route="route_C" depart="55" />
    <vehicle id="truck4C_6" type="truck4" route="route_C" depart="56" />
    <vehicle id="truck4C_7" type="truck4" route="route_C" depart="57" />
    <vehicle id="truck4C_8" type="truck4" route="route_C" depart="58" />
    <vehicle id="truck4C_9" type="truck4" route="route_C" depart="59" />
    <vehicle id="truck5C_0" type="truck5" route="route_C" depart="90" />
    <vehicle id="truck5C_1" type="truck5" route="route_C" depart="91" />
    <vehicle id="truck5C_2" type="truck5" route="route_C" depart="92" />
    <vehicle id="truck5C_3" type="truck5" route="route_C" depart="93" />
    <vehicle id="truck5C_4" type="truck5" route="route_C" depart="94" />
    <vehicle id="truck5C_5" type="truck5" route="route_C" depart="95" />
    <vehicle id="truck5C_6" type="truck5" route="route_C" depart="96" />
    <vehicle id="truck5C_7" type="truck5" route="route_C" depart="97" />
    <vehicle id="truck6C_0" type="truck6" route="route_C" depart="120" />
    <vehicle id="truck6C_1" type="truck6" route="route_C" depart="121" />
    <vehicle id="truck6C_2" type="truck6" route="route_C" depart="122" />
    <vehicle id="truck6C_3" type="truck6" route="route_C" depart="123" />
    <vehicle id="truck6C_4" type="truck6" route="route_C" depart="124" />
    <vehicle id="truck6C_5" type="truck6" route="route_C" depart="125" />
    <vehicle id="truck6C_6" type="truck6" route="route_C" depart="126" />
    <vehicle id="truck6C_7" type="truck6" route="route_C" depart="127" />
    <vehicle id="truck6C_8" type="truck6" route="route_C" depart="128" />
    <vehicle id="truck6C_9" type="truck6" route="route_C" depart="129" />
    <vehicle id="truck6C_10" type="truck6" route="route_C" depart="130" />
    <vehicle id="truck7C_0" type="truck7" route="route_C" depart="200" />
    <vehicle id="truck7C_1" type="truck7" route="route_C" depart="201" />
    <vehicle id="truck7C_2" type="truck7" route="route_C" depart="202" />
    <vehicle id="truck8C_0" type="truck8" route="route_C" depart="270" />
    <vehicle id="truck9C_0" type="truck9" route="route_C" depart="315" />
    <vehicle id="truck9C_1" type="truck9" route="route_C" depart="316" />
    <vehicle id="carC_0" type="car" route="route_C" depart="40" />
    <vehicle id="carC_1" type="car" route="route_C" depart="41" />
    <vehicle id="carC_2" type="car" route="route_C" depart="42" />
    <vehicle id="carC_3" type="car" route="route_C" depart="43" />
    <vehicle id="carC_4" type="car" route="route_C" depart="44" />
    <vehicle id="carC_5" type="car" route="route_C" depart="40" />
    <vehicle id="carC_6" type="car" route="route_C" depart="41" />
    <vehicle id="carC_7" type="car" route="route_C" depart="42" />
    <vehicle id="carC_8" type="car" route="route_C" depart="43" />
    <vehicle id="carC_9" type="car" route="route_C" depart="44" />
    <vehicle id="carC_10" type="car" route="route_C" depart="40" />
    <vehicle id="carC_11" type="car" route="route_C" depart="41" />
    <vehicle id="carC_12" type="car" route="route_C" depart="42" />
    <vehicle id="carC_13" type="car" route="route_C" depart="43" />
    <vehicle id="carC_14" type="car" route="route_C" depart="44" />
    <vehicle id="carC_15" type="car" route="route_C" depart="40" />
    <vehicle id="carC_16" type="car" route="route_C" depart="41" />
    <vehicle id="carC_17" type="car" route="route_C" depart="42" />
    <vehicle id="carC_18" type="car" route="route_C" depart="43" />
    <vehicle id="carC_19" type="car" route="route_C" depart="44" />
    <vehicle id="carC_20" type="car" route="route_C" depart="40" />
    <vehicle id="carC_21" type="car" route="route_C" depart="41" />
    <vehicle id="carC_22" type="car" route="route_C" depart="42" />
    <vehicle id="carC_23" type="car" route="route_C" depart="43" />
    <vehicle id="carC_24" type="car" route="route_C" depart="44" />
    <vehicle id="carC_25" type="car" route="route_C" depart="40" />
    <vehicle id="carC_26" type="car" route="route_C" depart="41" />
    <vehicle id="carC_27" type="car" route="route_C" depart="42" />
    <vehicle id="carC_28" type="car" route="route_C" depart="43" />
    <vehicle id="carC_29" type="car" route="route_C" depart="44" />
    <vehicle id="carC_30" type="car" route="route_C" depart="40" />
    <vehicle id="carC_31" type="car" route="route_C" depart="41" />
    <vehicle id="carC_32" type="car" route="route_C" depart="42" />
    <vehicle id="carC_33" type="car" route="route_C" depart="43" />
    <vehicle id="carC_34" type="car" route="route_C" depart="44" />
    <vehicle id="carC_35" type="car" route="route_C" depart="40" />
    <vehicle id="carC_36" type="car" route="route_C" depart="41" />
    <vehicle id="carC_37" type="car" route="route_C" depart="42" />
    <vehicle id="carC_38" type="car" route="route_C" depart="43" />
    <vehicle id="carC_39" type="car" route="route_C" depart="44" />
    <vehicle id="carC_40" type="car" route="route_C" depart="40" />
    <vehicle id="carC_41" type="car" route="route_C" depart="41" />
    <vehicle id="carC_42" type="car" route="route_C" depart="42" />
    <vehicle id="carC_43" type="car" route="route_C" depart="43" />
    <vehicle id="carC_44" type="car" route="route_C" depart="44" />
    <vehicle id="carC_45" type="car" route="route_C" depart="40" />
    <vehicle id="carC_46" type="car" route="route_C" depart="41" />
    <vehicle id="carC_47" type="car" route="route_C" depart="42" />
    <vehicle id="carC_48" type="car" route="route_C" depart="43" />
    <vehicle id="carC_49" type="car" route="route_C" depart="44" />
    <vehicle id="carC_50" type="car" route="route_C" depart="40" />
    <vehicle id="carC_51" type="car" route="route_C" depart="41" />
    <vehicle id="carC_52" type="car" route="route_C" depart="42" />
    <vehicle id="carC_53" type="car" route="route_C" depart="43" />
    <vehicle id="carC_54" type="car" route="route_C" depart="44" />
    <vehicle id="carC_55" type="car" route="route_C" depart="40" />
    <vehicle id="carC_56" type="car" route="route_C" depart="41" />
    <vehicle id="carC_57" type="car" route="route_C" depart="42" />
    <vehicle id="carC_58" type="car" route="route_C" depart="43" />
    <vehicle id="carC_59" type="car" route="route_C" depart="44" />
    <vehicle id="carC_60" type="car" route="route_C" depart="40" />
    <vehicle id="carC_61" type="car" route="route_C" depart="41" />
    <vehicle id="carC_62" type="car" route="route_C" depart="42" />
    <vehicle id="carC_63" type="car" route="route_C" depart="43" />
    <vehicle id="carC_64" type="car" route="route_C" depart="44" />
    <vehicle id="carC_65" type="car" route="route_C" depart="40" />
    <vehicle id="carC_66" type="car" route="route_C" depart="41" />
    <vehicle id="carC_67" type="car" route="route_C" depart="42" />
    <vehicle id="carC_68" type="car" route="route_C" depart="43" />
    <vehicle id="carC_69" type="car" route="route_C" depart="44" />
    <vehicle id="carC_70" type="car" route="route_C" depart="40" />
    <vehicle id="carC_71" type="car" route="route_C" depart="41" />
    <vehicle id="carC_72" type="car" route="route_C" depart="42" />
    <vehicle id="carC_73" type="car" route="route_C" depart="43" />
    <vehicle id="carC_74" type="car" route="route_C" depart="44" />
    <vehicle id="carC_75" type="car" route="route_C" depart="40" />
    <vehicle id="carC_76" type="car" route="route_C" depart="41" />
    <vehicle id="carC_77" type="car" route="route_C" depart="42" />
    <vehicle id="carC_78" type="car" route="route_C" depart="43" />
    <vehicle id="carC_79" type="car" route="route_C" depart="44" />
    <vehicle id="carC_80" type="car" route="route_C" depart="40" />
    <vehicle id="carC_81" type="car" route="route_C" depart="41" />
    <vehicle id="carC_82" type="car" route="route_C" depart="42" />
    <vehicle id="carC_83" type="car" route="route_C" depart="43" />
    <vehicle id="carC_84" type="car" route="route_C" depart="44" />
    <vehicle id="carC_85" type="car" route="route_C" depart="40" />
    <vehicle id="carC_86" type="car" route="route_C" depart="41" />
    <vehicle id="carC_87" type="car" route="route_C" depart="42" />
    <vehicle id="carC_88" type="car" route="route_C" depart="43" />
    <vehicle id="carC_89" type="car" route="route_C" depart="44" />
    <vehicle id="carC_90" type="car" route="route_C" depart="40" />
    <vehicle id="carC_91" type="car" route="route_C" depart="41" />
    <vehicle id="carC_92" type="car" route="route_C" depart="42" />
    <vehicle id="carC_93" type="car" route="route_C" depart="43" />
    <vehicle id="carC_94" type="car" route="route_C" depart="44" />
    <vehicle id="carC_95" type="car" route="route_C" depart="40" />
    <vehicle id="carC_96" type="car" route="route_C" depart="41" />
    <vehicle id="carC_97" type="car" route="route_C" depart="42" />
    <vehicle id="carC_98" type="car" route="route_C" depart="43" />
    <vehicle id="carC_99" type="car" route="route_C" depart="44" />
    <vehicle id="carC_100" type="car" route="route_C" depart="40" />
    <vehicle id="carC_101" type="car" route="route_C" depart="41" />
    <vehicle id="carC_102" type="car" route="route_C" depart="42" />
    <vehicle id="carC_103" type="car" route="route_C" depart="43" />
    <vehicle id="carC_104" type="car" route="route_C" depart="44" />
    <vehicle id="carC_105" type="car" route="route_C" depart="40" />
    <vehicle id="carC_106" type="car" route="route_C" depart="41" />
    <vehicle id="carC_107" type="car" route="route_C" depart="42" />
    <vehicle id="carC_108" type="car" route="route_C" depart="43" />
    <vehicle id="carC_109" type="car" route="route_C" depart="44" />
    <vehicle id="carC_110" type="car" route="route_C" depart="40" />
    <vehicle id="carC_111" type="car" route="route_C" depart="41" />
    <vehicle id="carC_112" type="car" route="route_C" depart="42" />
    <vehicle id="carC_113" type="car" route="route_C" depart="43" />
    <vehicle id="carC_114" type="car" route="route_C" depart="44" />
    <vehicle id="carC_115" type="car" route="route_C" depart="40" />
    <vehicle id="carC_116" type="car" route="route_C" depart="41" />
    <vehicle id="carC_117" type="car" route="route_C" depart="42" />
    <vehicle id="carC_118" type="car" route="route_C" depart="43" />
    <vehicle id="carC_119" type="car" route="route_C" depart="44" />
    <vehicle id="carC_120" type="car" route="route_C" depart="40" />
    <vehicle id="carC_121" type="car" route="route_C" depart="41" />
    <vehicle id="carC_122" type="car" route="route_C" depart="42" />
    <vehicle id="carC_123" type="car" route="route_C" depart="43" />
    <vehicle id="carC_124" type="car" route="route_C" depart="44" />
    <vehicle id="carC_125" type="car" route="route_C" depart="40" />
    <vehicle id="carC_126" type="car" route="route_C" depart="41" />
    <vehicle id="carC_127" type="car" route="route_C" depart="42" />
    <vehicle id="carC_128" type="car" route="route_C" depart="43" />
    <vehicle id="carC_129" type="car" route="route_C" depart="44" />
    <vehicle id="carC_130" type="car" route="route_C" depart="40" />
    <vehicle id="carC_131" type="car" route="route_C" depart="41" />
    <vehicle id="carC_132" type="car" route="route_C" depart="42" />
    <vehicle id="carC_133" type="car" route="route_C" depart="43" />
    <vehicle id="carC_134" type="car" route="route_C" depart="44" />
    <vehicle id="carC_135" type="car" route="route_C" depart="40" />
    <vehicle id="carC_136" type="car" route="route_C" depart="41" />
    <vehicle id="carC_137" type="car" route="route_C" depart="42" />
    <vehicle id="carC_138" type="car" route="route_C" depart="43" />
    <vehicle id="carC_139" type="car" route="route_C" depart="44" />
    <vehicle id="carC_140" type="car" route="route_C" depart="40" />
    <vehicle id="carC_141" type="car" route="route_C" depart="41" />
    <vehicle id="carC_142" type="car" route="route_C" depart="42" />
    <vehicle id="carC_143" type="car" route="route_C" depart="43" />
    <vehicle id="carC_144" type="car" route="route_C" depart="44" />
    <vehicle id="carC_145" type="car" route="route_C" depart="40" />
    <vehicle id="carC_146" type="car" route="route_C" depart="41" />
    <vehicle id="carC_147" type="car" route="route_C" depart="42" />
    <vehicle id="carC_148" type="car" route="route_C" depart="43" />
    <vehicle id="carC_149" type="car" route="route_C" depart="44" />
    <vehicle id="carC_150" type="car" route="route_C" depart="40" />
    <vehicle id="carC_151" type="car" route="route_C" depart="41" />
    <vehicle id="carC_152" type="car" route="route_C" depart="42" />
    <vehicle id="carC_153" type="car" route="route_C" depart="43" />
    <vehicle id="carC_154" type="car" route="route_C" depart="44" />
    <vehicle id="carC_155" type="car" route="route_C" depart="40" />
    <vehicle id="carC_156" type="car" route="route_C" depart="41" />
    <vehicle id="carC_157" type="car" route="route_C" depart="42" />
    <vehicle id="carC_158" type="car" route="route_C" depart="43" />
    <vehicle id="carC_159" type="car" route="route_C" depart="44" />
    <vehicle id="carC_160" type="car" route="route_C" depart="40" />
    <vehicle id="carC_161" type="car" route="route_C" depart="41" />
    <vehicle id="carC_162" type="car" route="route_C" depart="42" />
    <vehicle id="carC_163" type="car" route="route_C" depart="43" />
    <vehicle id="carC_164" type="car" route="route_C" depart="44" />
    <vehicle id="carC_165" type="car" route="route_C" depart="40" />
    <vehicle id="carC_166" type="car" route="route_C" depart="41" />
    <vehicle id="carC_167" type="car" route="route_C" depart="42" />
    <vehicle id="carC_168" type="car" route="route_C" depart="43" />
    <vehicle id="carC_169" type="car" route="route_C" depart="44" />
    <vehicle id="carC_170" type="car" route="route_C" depart="40" />
    <vehicle id="carC_171" type="car" route="route_C" depart="41" />
    <vehicle id="carC_172" type="car" route="route_C" depart="42" />
    <vehicle id="carC_173" type="car" route="route_C" depart="43" />
    <vehicle id="carC_174" type="car" route="route_C" depart="44" />
    <vehicle id="carC_175" type="car" route="route_C" depart="40" />
    <vehicle id="carC_176" type="car" route="route_C" depart="41" />
    <vehicle id="carC_177" type="car" route="route_C" depart="42" />
    <vehicle id="carC_178" type="car" route="route_C" depart="43" />
    <vehicle id="carC_179" type="car" route="route_C" depart="44" />
    <vehicle id="carC_180" type="car" route="route_C" depart="40" />
    <vehicle id="carC_181" type="car" route="route_C" depart="41" />
    <vehicle id="carC_182" type="car" route="route_C" depart="42" />
    <vehicle id="carC_183" type="car" route="route_C" depart="43" />
    <vehicle id="carC_184" type="car" route="route_C" depart="44" />
    <vehicle id="carC_185" type="car" route="route_C" depart="40" />
    <vehicle id="carC_186" type="car" route="route_C" depart="41" />
    <vehicle id="carC_187" type="car" route="route_C" depart="42" />
    <vehicle id="carC_188" type="car" route="route_C" depart="43" />
    <vehicle id="carC_189" type="car" route="route_C" depart="44" />
    <vehicle id="carC_190" type="car" route="route_C" depart="40" />
    <vehicle id="carC_191" type="car" route="route_C" depart="41" />
    <vehicle id="carC_192" type="car" route="route_C" depart="42" />
    <vehicle id="carC_193" type="car" route="route_C" depart="43" />
    <vehicle id="carC_194" type="car" route="route_C" depart="44" />
    <vehicle id="carC_195" type="car" route="route_C" depart="40" />
    <vehicle id="carC_196" type="car" route="route_C" depart="41" />
    <vehicle id="carC_197" type="car" route="route_C" depart="42" />
    <vehicle id="carC_198" type="car" route="route_C" depart="43" />
    <vehicle id="carC_199" type="car" route="route_C" depart="44" />
    <vehicle id="carC_200" type="car" route="route_C" depart="40" />
    <vehicle id="carC_201" type="car" route="route_C" depart="41" />
    <vehicle id="carC_202" type="car" route="route_C" depart="42" />
    <vehicle id="carC_203" type="car" route="route_C" depart="43" />
    <vehicle id="carC_204" type="car" route="route_C" depart="44" />
    <vehicle id="carC_205" type="car" route="route_C" depart="40" />
    <vehicle id="carC_206" type="car" route="route_C" depart="41" />
    <vehicle id="carC_207" type="car" route="route_C" depart="42" />
    <vehicle id="carC_208" type="car" route="route_C" depart="43" />
    <vehicle id="carC_209" type="car" route="route_C" depart="44" />
    <vehicle id="carC_210" type="car" route="route_C" depart="40" />
    <vehicle id="carC_211" type="car" route="route_C" depart="41" />
    <vehicle id="carC_212" type="car" route="route_C" depart="42" />
    <vehicle id="carC_213" type="car" route="route_C" depart="43" />
    <vehicle id="carC_214" type="car" route="route_C" depart="44" />
    <vehicle id="carC_215" type="car" route="route_C" depart="40" />
    <vehicle id="carC_216" type="car" route="route_C" depart="41" />
    <vehicle id="carC_217" type="car" route="route_C" depart="42" />
    <vehicle id="carC_218" type="car" route="route_C" depart="43" />
    <vehicle id="carC_219" type="car" route="route_C" depart="44" />
    <vehicle id="carC_220" type="car" route="route_C" depart="40" />
    <vehicle id="carC_221" type="car" route="route_C" depart="41" />
    <vehicle id="carC_222" type="car" route="route_C" depart="42" />
    <vehicle id="carC_223" type="car" route="route_C" depart="43" />
    <vehicle id="carC_224" type="car" route="route_C" depart="44" />
    <vehicle id="carC_225" type="car" route="route_C" depart="40" />
    <vehicle id="carC_226" type="car" route="route_C" depart="41" />
    <vehicle id="carC_227" type="car" route="route_C" depart="42" />
    <vehicle id="carC_228" type="car" route="route_C" depart="43" />
    <vehicle id="carC_229" type="car" route="route_C" depart="44" />
    <vehicle id="carC_230" type="car" route="route_C" depart="40" />
    <vehicle id="carC_231" type="car" route="route_C" depart="41" />
    <vehicle id="carC_232" type="car" route="route_C" depart="42" />
    <vehicle id="carC_233" type="car" route="route_C" depart="43" />
    <vehicle id="carC_234" type="car" route="route_C" depart="44" />
    <vehicle id="carC_235" type="car" route="route_C" depart="40" />
    <vehicle id="carC_236" type="car" route="route_C" depart="41" />
    <vehicle id="carC_237" type="car" route="route_C" depart="42" />
    <vehicle id="carC_238" type="car" route="route_C" depart="43" />
    <vehicle id="carC_239" type="car" route="route_C" depart="44" />
    <vehicle id="carC_240" type="car" route="route_C" depart="40" />
    <vehicle id="carC_241" type="car" route="route_C" depart="41" />
    <vehicle id="carC_242" type="car" route="route_C" depart="42" />
    <vehicle id="carC_243" type="car" route="route_C" depart="43" />
    <vehicle id="carC_244" type="car" route="route_C" depart="44" />
    <vehicle id="carC_245" type="car" route="route_C" depart="40" />
    <vehicle id="carC_246" type="car" route="route_C" depart="41" />
    <vehicle id="carC_247" type="car" route="route_C" depart="42" />
    <vehicle id="carC_248" type="car" route="route_C" depart="43" />
    <vehicle id="carC_249" type="car" route="route_C" depart="44" />
    <vehicle id="carC_250" type="car" route="route_C" depart="40" />
    <vehicle id="carC_251" type="car" route="route_C" depart="41" />
    <vehicle id="carC_252" type="car" route="route_C" depart="42" />
    <vehicle id="carC_253" type="car" route="route_C" depart="43" />
    <vehicle id="carC_254" type="car" route="route_C" depart="44" />
    <vehicle id="carC_255" type="car" route="route_C" depart="40" />
    <vehicle id="carC_256" type="car" route="route_C" depart="41" />
    <vehicle id="carC_257" type="car" route="route_C" depart="42" />
    <vehicle id="carC_258" type="car" route="route_C" depart="43" />
    <vehicle id="carC_259" type="car" route="route_C" depart="44" />
    <vehicle id="carC_260" type="car" route="route_C" depart="40" />
    <vehicle id="carC_261" type="car" route="route_C" depart="41" />
    <vehicle id="carC_262" type="car" route="route_C" depart="42" />
    <vehicle id="carC_263" type="car" route="route_C" depart="43" />
    <vehicle id="carC_264" type="car" route="route_C" depart="44" />
    <vehicle id="carC_265" type="car" route="route_C" depart="40" />
    <vehicle id="carC_266" type="car" route="route_C" depart="41" />
    <vehicle id="carC_267" type="car" route="route_C" depart="42" />
    <vehicle id="carC_268" type="car" route="route_C" depart="43" />
    <vehicle id="carC_269" type="car" route="route_C" depart="44" />
    <vehicle id="carC_270" type="car" route="route_C" depart="40" />
    <vehicle id="carC_271" type="car" route="route_C" depart="41" />
    <vehicle id="carC_272" type="car" route="route_C" depart="42" />
    <vehicle id="carC_273" type="car" route="route_C" depart="43" />
    <vehicle id="carC_274" type="car" route="route_C" depart="44" />
    <vehicle id="carC_275" type="car" route="route_C" depart="40" />
    <vehicle id="carC_276" type="car" route="route_C" depart="41" />
    <vehicle id="carC_277" type="car" route="route_C" depart="42" />
    <vehicle id="carC_278" type="car" route="route_C" depart="43" />
    <vehicle id="carC_279" type="car" route="route_C" depart="44" />
    <vehicle id="carC_280" type="car" route="route_C" depart="40" />
    <vehicle id="carC_281" type="car" route="route_C" depart="41" />
    <vehicle id="carC_282" type="car" route="route_C" depart="42" />
    <vehicle id="carC_283" type="car" route="route_C" depart="43" />
    <vehicle id="carC_284" type="car" route="route_C" depart="44" />
    <vehicle id="carC_285" type="car" route="route_C" depart="40" />
    <vehicle id="carC_286" type="car" route="route_C" depart="41" />
    <vehicle id="carC_287" type="car" route="route_C" depart="42" />
    <vehicle id="carC_288" type="car" route="route_C" depart="43" />
    <vehicle id="carC_289" type="car" route="route_C" depart="44" />
    <vehicle id="carC_290" type="car" route="route_C" depart="40" />
    <vehicle id="carC_291" type="car" route="route_C" depart="41" />
    <vehicle id="carC_292" type="car" route="route_C" depart="42" />
    <vehicle id="carC_293" type="car" route="route_C" depart="43" />
    <vehicle id="carC_294" type="car" route="route_C" depart="44" />
    <vehicle id="carC_295" type="car" route="route_C" depart="40" />
    <vehicle id="carC_296" type="car" route="route_C" depart="41" />
    <vehicle id="carC_297" type="car" route="route_C" depart="42" />
    <vehicle id="carC_298" type="car" route="route_C" depart="43" />
    <vehicle id="carC_299" type="car" route="route_C" depart="44" />
    <vehicle id="carC_300" type="car" route="route_C" depart="40" />
    <vehicle id="carC_301" type="car" route="route_C" depart="41" />
    <vehicle id="carC_302" type="car" route="route_C" depart="42" />
    <vehicle id="carC_303" type="car" route="route_C" depart="43" />
    <vehicle id="carC_304" type="car" route="route_C" depart="44" />
    <vehicle id="carC_305" type="car" route="route_C" depart="40" />
    <vehicle id="carC_306" type="car" route="route_C" depart="41" />
    <vehicle id="carC_307" type="car" route="route_C" depart="42" />
    <vehicle id="carC_308" type="car" route="route_C" depart="43" />
    <vehicle id="carC_309" type="car" route="route_C" depart="44" />
    <vehicle id="carC_310" type="car" route="route_C" depart="40" />
    <vehicle id="carC_311" type="car" route="route_C" depart="41" />
    <vehicle id="carC_312" type="car" route="route_C" depart="42" />
    <vehicle id="carC_313" type="car" route="route_C" depart="43" />
    <vehicle id="carC_314" type="car" route="route_C" depart="44" />
    <vehicle id="carC_315" type="car" route="route_C" depart="40" />
    <vehicle id="carC_316" type="car" route="route_C" depart="41" />
    <vehicle id="carC_317" type="car" route="route_C" depart="42" />
    <vehicle id="carC_318" type="car" route="route_C" depart="43" />
    <vehicle id="carC_319" type="car" route="route_C" depart="44" />
    <vehicle id="carC_320" type="car" route="route_C" depart="40" />
    <vehicle id="carC_321" type="car" route="route_C" depart="41" />
    <vehicle id="carC_322" type="car" route="route_C" depart="42" />
    <vehicle id="carC_323" type="car" route="route_C" depart="43" />
    <vehicle id="carC_324" type="car" route="route_C" depart="44" />
    <vehicle id="carC_325" type="car" route="route_C" depart="40" />
    <vehicle id="carC_326" type="car" route="route_C" depart="41" />
    <vehicle id="carC_327" type="car" route="route_C" depart="42" />
    <vehicle id="carC_328" type="car" route="route_C" depart="43" />
    <vehicle id="carC_329" type="car" route="route_C" depart="44" />
    <vehicle id="carC_330" type="car" route="route_C" depart="40" />
    <vehicle id="carC_331" type="car" route="route_C" depart="41" />
    <vehicle id="carC_332" type="car" route="route_C" depart="42" />
    <vehicle id="carC_333" type="car" route="route_C" depart="43" />
    <vehicle id="carC_334" type="car" route="route_C" depart="44" />
    <vehicle id="carC_335" type="car" route="route_C" depart="40" />
    <vehicle id="carC_336" type="car" route="route_C" depart="41" />
    <vehicle id="carC_337" type="car" route="route_C" depart="42" />
    <vehicle id="carC_338" type="car" route="route_C" depart="43" />
    <vehicle id="carC_339" type="car" route="route_C" depart="44" />
    <vehicle id="carC_340" type="car" route="route_C" depart="40" />
    <vehicle id="carC_341" type="car" route="route_C" depart="41" />
    <vehicle id="carC_342" type="car" route="route_C" depart="42" />
    <vehicle id="carC_343" type="car" route="route_C" depart="43" />
    <vehicle id="carC_344" type="car" route="route_C" depart="44" />
    <vehicle id="carC_345" type="car" route="route_C" depart="40" />
    <vehicle id="carC_346" type="car" route="route_C" depart="41" />
    <vehicle id="carC_347" type="car" route="route_C" depart="42" />
    <vehicle id="carC_348" type="car" route="route_C" depart="43" />
    <vehicle id="carC_349" type="car" route="route_C" depart="44" />
    <vehicle id="carC_350" type="car" route="route_C" depart="40" />
    <vehicle id="carC_351" type="car" route="route_C" depart="41" />
    <vehicle id="carC_352" type="car" route="route_C" depart="42" />
    <vehicle id="carC_353" type="car" route="route_C" depart="43" />
    <vehicle id="carC_354" type="car" route="route_C" depart="44" />
    <vehicle id="carC_355" type="car" route="route_C" depart="40" />
    <vehicle id="carC_356" type="car" route="route_C" depart="41" />