<?xml version="1.0" encoding="UTF-8"?>

<!-- generated on 2025-11-23 12:44:02 by Eclipse SUMO netedit Version 1.22.0
<neteditConfiguration xmlns:xsi="http://www.w3.org/2001/XMLSchema-instance" xsi:noNamespaceSchemaLocation="http://sumo.dlr.de/xsd/neteditConfiguration.xsd">

    <input>
        <sumo-net-file value="C:\Users\USUARIO(A)\Documents\GitHub\adaptative-traffic-lights\UFAL\ufalNetwork.net.xml"/>
    </input>

    <output>
        <output-file value="C:\Users\USUARIO(A)\Documents\GitHub\adaptative-traffic-lights\UFAL\ufalNetwork.net.xml"/>
    </output>

    <processing>
        <geometry.min-radius.fix.railways value="false"/>
        <geometry.max-grade.fix value="false"/>
        <offset.disable-normalization value="true"/>
        <lefthand value="0"/>
    </processing>

    <junctions>
        <no-turnarounds value="true"/>
        <junctions.corner-detail value="5"/>
        <junctions.limit-turn-speed value="5.50"/>
        <rectangular-lane-cut value="0"/>
    </junctions>

    <pedestrian>
        <walkingareas value="0"/>
    </pedestrian>

</neteditConfiguration>
-->

<net version="1.20" junctionCornerDetail="5" limitTurnSpeed="5.50" xmlns:xsi="http://www.w3.org/2001/XMLSchema-instance" xsi:noNamespaceSchemaLocation="http://sumo.dlr.de/xsd/net_file.xsd">

    <location netOffset="0.00,0.00" convBoundary="190641.90,-1059293.55,198259.25,-1054860.76" origBoundary="-35.817751,-9.650921,-35.733436,-9.528110" projParameter="+proj=utm +zone=25 +ellps=WGS84 +datum=WGS84 +units=m +no_defs"/>

    <type id="highway.cycleway" priority="1" numLanes="1" speed="5.56" allow="bicycle" oneway="0" width="2.00"/>
    <type id="highway.footway" priority="1" numLanes="1" speed="2.78" allow="pedestrian" oneway="1" width="2.00"/>
    <type id="highway.residential" priority="3" numLanes="1" speed="13.89" disallow="tram rail_urban rail rail_electric rail_fast ship container cable_car subway aircraft wheelchair scooter drone" oneway="0"/>
    <type id="highway.service" priority="1" numLanes="1" speed="5.56" allow="pedestrian delivery bicycle" oneway="0"/>
    <type id="highway.tertiary" priority="10" numLanes="1" speed="22.22" disallow="tram rail_urban rail rail_electric rail_fast ship container cable_car subway aircraft wheelchair scooter drone" oneway="0"/>
    <type id="highway.trunk" priority="13" numLanes="2" speed="27.78" disallow="pedestrian bicycle tram rail_urban rail rail_electric rail_fast ship container cable_car subway aircraft wheelchair scooter drone" oneway="0"/>
    <type id="highway.unclassified" priority="4" numLanes="1" speed="13.89" disallow="tram rail_urban rail rail_electric rail_fast ship container cable_car subway aircraft wheelchair scooter drone" oneway="0"/>

    <edge id=":10083879948_0" function="internal">
        <lane id=":10083879948_0_0" index="0" disallow="tram rail_urban rail rail_electric rail_fast ship container cable_car subway aircraft wheelchair scooter drone" speed="8.33" length="0.10" shape="195323.34,-1057353.54 195323.34,-1057353.54"/>
        <lane id=":10083879948_0_1" index="1" disallow="tram rail_urban rail rail_electric rail_fast ship container cable_car subway aircraft wheelchair scooter drone" speed="8.33" length="0.10" shape="195324.84,-1057356.36 195324.84,-1057356.36"/>
    </edge>
    <edge id=":11256815423_0" function="internal">
        <lane id=":11256815423_0_0" index="0" disallow="tram rail_urban rail rail_electric rail_fast ship container cable_car subway aircraft wheelchair scooter drone" speed="8.33" length="0.10" shape="195257.64,-1057219.70 195257.64,-1057219.70"/>
    </edge>
    <edge id=":11256815423_1" function="internal">
        <lane id=":11256815423_1_0" index="0" disallow="tram rail_urban rail rail_electric rail_fast ship container cable_car subway aircraft wheelchair scooter drone" speed="8.33" length="0.10" shape="195259.12,-1057222.54 195259.12,-1057222.54"/>
    </edge>
    <edge id=":12574660955_0" function="internal">
        <lane id=":12574660955_0_0" index="0" disallow="pedestrian bicycle tram rail_urban rail rail_electric rail_fast ship container cable_car subway aircraft wheelchair scooter drone" speed="16.67" length="0.30" shape="194840.11,-1058150.27 194840.25,-1058150.53"/>
        <lane id=":12574660955_0_1" index="1" disallow="pedestrian bicycle tram rail_urban rail rail_electric rail_fast ship container cable_car subway aircraft wheelchair scooter drone" speed="16.67" length="0.30" shape="194842.93,-1058148.76 194843.07,-1058149.02"/>
        <lane id=":12574660955_0_2" index="2" disallow="pedestrian bicycle tram rail_urban rail rail_electric rail_fast ship container cable_car subway aircraft wheelchair scooter drone" speed="16.67" length="0.30" shape="194845.75,-1058147.25 194845.89,-1058147.52"/>
    </edge>
    <edge id=":12574660956_0" function="internal">
        <lane id=":12574660956_0_0" index="0" disallow="pedestrian bicycle tram rail_urban rail rail_electric rail_fast ship container cable_car subway aircraft wheelchair scooter drone" speed="16.67" length="0.30" shape="194866.76,-1058136.71 194866.63,-1058136.44"/>
        <lane id=":12574660956_0_1" index="1" disallow="pedestrian bicycle tram rail_urban rail rail_electric rail_fast ship container cable_car subway aircraft wheelchair scooter drone" speed="16.67" length="0.30" shape="194863.89,-1058138.10 194863.75,-1058137.84"/>
        <lane id=":12574660956_0_2" index="2" disallow="pedestrian bicycle tram rail_urban rail rail_electric rail_fast ship container cable_car subway aircraft wheelchair scooter drone" speed="16.67" length="0.30" shape="194861.01,-1058139.50 194860.88,-1058139.23"/>
    </edge>
    <edge id=":12574660960_0" function="internal">
        <lane id=":12574660960_0_0" index="0" disallow="pedestrian bicycle tram rail_urban rail rail_electric rail_fast ship container cable_car subway aircraft wheelchair scooter drone" speed="16.67" length="0.30" shape="194762.15,-1057991.84 194762.29,-1057992.11"/>
        <lane id=":12574660960_0_1" index="1" disallow="pedestrian bicycle tram rail_urban rail rail_electric rail_fast ship container cable_car subway aircraft wheelchair scooter drone" speed="16.67" length="0.30" shape="194765.01,-1057990.41 194765.15,-1057990.67"/>
        <lane id=":12574660960_0_2" index="2" disallow="pedestrian bicycle tram rail_urban rail rail_electric rail_fast ship container cable_car subway aircraft wheelchair scooter drone" speed="16.67" length="0.30" shape="194767.87,-1057988.97 194768.01,-1057989.24"/>
    </edge>
    <edge id=":12574660961_0" function="internal">
        <lane id=":12574660961_0_0" index="0" disallow="pedestrian bicycle tram rail_urban rail rail_electric rail_fast ship container cable_car subway aircraft wheelchair scooter drone" speed="16.67" length="0.30" shape="194788.15,-1057978.95 194788.02,-1057978.68"/>
        <lane id=":12574660961_0_1" index="1" disallow="pedestrian bicycle tram rail_urban rail rail_electric rail_fast ship container cable_car subway aircraft wheelchair scooter drone" speed="16.67" length="0.30" shape="194785.30,-1057980.39 194785.16,-1057980.13"/>
        <lane id=":12574660961_0_2" index="2" disallow="pedestrian bicycle tram rail_urban rail rail_electric rail_fast ship container cable_car subway aircraft wheelchair scooter drone" speed="16.67" length="0.30" shape="194782.44,-1057981.84 194782.31,-1057981.57"/>
    </edge>
    <edge id=":12574660964_0" function="internal">
        <lane id=":12574660964_0_0" index="0" disallow="pedestrian bicycle tram rail_urban rail rail_electric rail_fast ship container cable_car subway aircraft wheelchair scooter drone" speed="16.67" length="4.70" shape="194676.21,-1057757.75 194674.07,-1057753.58"/>
        <lane id=":12574660964_0_1" index="1" disallow="pedestrian bicycle tram rail_urban rail rail_electric rail_fast ship container cable_car subway aircraft wheelchair scooter drone" speed="16.67" length="4.70" shape="194673.36,-1057759.21 194671.22,-1057755.04"/>
        <lane id=":12574660964_0_2" index="2" disallow="pedestrian bicycle tram rail_urban rail rail_electric rail_fast ship container cable_car subway aircraft wheelchair scooter drone" speed="16.67" length="4.70" shape="194670.51,-1057760.67 194668.37,-1057756.50"/>
        <lane id=":12574660964_0_3" index="3" disallow="pedestrian bicycle tram rail_urban rail rail_electric rail_fast ship container cable_car subway aircraft wheelchair scooter drone" speed="16.67" length="4.70" shape="194667.67,-1057762.13 194665.52,-1057757.95"/>
    </edge>
    <edge id=":12574660965_0" function="internal">
        <lane id=":12574660965_0_0" index="0" disallow="tram rail_urban rail rail_electric rail_fast ship container cable_car subway aircraft wheelchair scooter drone" speed="8.33" length="3.83" shape="194656.57,-1057706.62 194653.23,-1057708.50"/>
        <lane id=":12574660965_0_1" index="1" disallow="tram rail_urban rail rail_electric rail_fast ship container cable_car subway aircraft wheelchair scooter drone" speed="8.33" length="3.83" shape="194658.14,-1057709.41 194654.79,-1057711.29"/>
    </edge>
    <edge id=":12574660965_2" function="internal">
        <lane id=":12574660965_2_0" index="0" allow="pedestrian bicycle" speed="4.27" length="3.76" width="2.00" shape="194657.47,-1057713.42 194656.75,-1057712.24 194656.06,-1057711.48 194655.41,-1057711.17 194654.79,-1057711.29"/>
    </edge>
    <edge id=":12574660966_0" function="internal">
        <lane id=":12574660966_0_0" index="0" disallow="tram rail_urban rail rail_electric rail_fast ship container cable_car subway aircraft wheelchair scooter drone" speed="8.33" length="3.72" shape="194659.86,-1057720.62 194663.16,-1057718.92"/>
        <lane id=":12574660966_0_1" index="1" disallow="tram rail_urban rail rail_electric rail_fast ship container cable_car subway aircraft wheelchair scooter drone" speed="8.33" length="3.72" shape="194658.39,-1057717.78 194661.69,-1057716.07"/>
    </edge>
    <edge id=":12574660966_2" function="internal">
        <lane id=":12574660966_2_0" index="0" allow="pedestrian bicycle" speed="4.43" length="3.64" width="2.00" shape="194658.39,-1057717.78 194658.78,-1057717.36 194658.84,-1057716.67 194658.59,-1057715.70 194658.02,-1057714.45"/>
    </edge>
    <edge id=":12574660966_3" function="internal">
        <lane id=":12574660966_3_0" index="0" allow="pedestrian bicycle" speed="5.38" length="6.18" width="2.00" shape="194656.25,-1057715.38 194657.13,-1057716.46 194658.34,-1057716.93 194659.85,-1057716.80 194661.69,-1057716.07"/>
    </edge>
    <edge id=":1603830874_0" function="internal">
        <lane id=":1603830874_0_0" index="0" disallow="pedestrian bicycle tram rail_urban rail rail_electric rail_fast ship container cable_car subway aircraft wheelchair scooter drone" speed="16.67" length="0.30" shape="193103.77,-1055102.70 193103.94,-1055102.97"/>
        <lane id=":1603830874_0_1" index="1" disallow="pedestrian bicycle tram rail_urban rail rail_electric rail_fast ship container cable_car subway aircraft wheelchair scooter drone" speed="16.67" length="0.30" shape="193106.51,-1055101.05 193106.67,-1055101.31"/>
        <lane id=":1603830874_0_2" index="2" disallow="pedestrian bicycle tram rail_urban rail rail_electric rail_fast ship container cable_car subway aircraft wheelchair scooter drone" speed="16.67" length="0.30" shape="193109.26,-1055099.41 193109.40,-1055099.64"/>
    </edge>
    <edge id=":1691833911_0" function="internal">
        <lane id=":1691833911_0_0" index="0" disallow="tram rail_urban rail rail_electric rail_fast ship container cable_car subway aircraft wheelchair scooter drone" speed="8.33" length="11.40" shape="195010.64,-1057534.76 195020.57,-1057528.97"/>
        <lane id=":1691833911_0_1" index="1" disallow="tram rail_urban rail rail_electric rail_fast ship container cable_car subway aircraft wheelchair scooter drone" speed="8.33" length="11.40" shape="195009.12,-1057531.95 195018.87,-1057526.25"/>
    </edge>
    <edge id=":1691833911_2" function="internal">
        <lane id=":1691833911_2_0" index="0" disallow="tram rail_urban rail rail_electric rail_fast ship container cable_car subway aircraft wheelchair scooter drone" speed="6.13" length="8.37" shape="195011.76,-1057524.98 195013.05,-1057526.67 195014.67,-1057527.45 195016.61,-1057527.31 195018.87,-1057526.25"/>
    </edge>
    <edge id=":1691833925_0" function="internal">
        <lane id=":1691833925_0_0" index="0" disallow="tram rail_urban rail rail_electric rail_fast ship container cable_car subway aircraft wheelchair scooter drone" speed="6.50" length="9.05" shape="195524.60,-1057266.01 195523.75,-1057263.67 195523.85,-1057261.63 195524.91,-1057259.88 195526.91,-1057258.43"/>
    </edge>
    <edge id=":1691833925_1" function="internal">
        <lane id=":1691833925_1_0" index="0" disallow="tram rail_urban rail rail_electric rail_fast ship container cable_car subway aircraft wheelchair scooter drone" speed="11.11" length="11.69" shape="195524.60,-1057266.01 195519.01,-1057255.74"/>
    </edge>
    <edge id=":1691833925_2" function="internal">
        <lane id=":1691833925_2_0" index="0" disallow="tram rail_urban rail rail_electric rail_fast ship container cable_car subway aircraft wheelchair scooter drone" speed="6.48" length="9.03" shape="195514.20,-1057265.26 195516.52,-1057264.39 195518.56,-1057264.47 195520.31,-1057265.51 195521.77,-1057267.52"/>
    </edge>
    <edge id=":1691833925_3" function="internal">
        <lane id=":1691833925_3_0" index="0" disallow="tram rail_urban rail rail_electric rail_fast ship container cable_car subway aircraft wheelchair scooter drone" speed="8.33" length="14.46" shape="195514.20,-1057265.26 195526.91,-1057258.43"/>
        <lane id=":1691833925_3_1" index="1" disallow="tram rail_urban rail rail_electric rail_fast ship container cable_car subway aircraft wheelchair scooter drone" speed="8.33" length="14.46" shape="195512.66,-1057262.46 195525.42,-1057255.60"/>
    </edge>
    <edge id=":1691833925_5" function="internal">
        <lane id=":1691833925_5_0" index="0" disallow="tram rail_urban rail rail_electric rail_fast ship container cable_car subway aircraft wheelchair scooter drone" speed="6.76" length="9.88" shape="195512.66,-1057262.46 195515.96,-1057260.44 195518.12,-1057258.65 195519.14,-1057257.09 195519.01,-1057255.74"/>
    </edge>
    <edge id=":1691833925_6" function="internal">
        <lane id=":1691833925_6_0" index="0" disallow="tram rail_urban rail rail_electric rail_fast ship container cable_car subway aircraft wheelchair scooter drone" speed="11.11" length="11.61" shape="195516.23,-1057257.31 195521.77,-1057267.52"/>
    </edge>
    <edge id=":1691833925_7" function="internal">
        <lane id=":1691833925_7_0" index="0" disallow="tram rail_urban rail rail_electric rail_fast ship container cable_car subway aircraft wheelchair scooter drone" speed="6.87" length="1.34" shape="195516.23,-1057257.31 195517.31,-1057258.11"/>
    </edge>
    <edge id=":1691833925_8" function="internal">
        <lane id=":1691833925_8_0" index="0" disallow="tram rail_urban rail rail_electric rail_fast ship container cable_car subway aircraft wheelchair scooter drone" speed="6.87" length="8.61" shape="195517.31,-1057258.11 195519.20,-1057258.09 195521.91,-1057257.25 195525.42,-1057255.60"/>
    </edge>
    <edge id=":1691833931_0" function="internal">
        <lane id=":1691833931_0_0" index="0" disallow="tram rail_urban rail rail_electric rail_fast ship container cable_car subway aircraft wheelchair scooter drone" speed="6.08" length="7.79" shape="195450.39,-1057124.05 195449.18,-1057122.29 195447.71,-1057121.33 195445.96,-1057121.20 195443.93,-1057121.87"/>
    </edge>
    <edge id=":1691833931_1" function="internal">
        <lane id=":1691833931_1_0" index="0" disallow="tram rail_urban rail rail_electric rail_fast ship container cable_car subway aircraft wheelchair scooter drone" speed="3.90" length="2.60" shape="195445.36,-1057124.73 195446.04,-1057124.51 195446.62,-1057124.55 195447.11,-1057124.87 195447.51,-1057125.46"/>
    </edge>
    <edge id=":1796531998_0" function="internal">
        <lane id=":1796531998_0_0" index="0" disallow="tram rail_urban rail rail_electric rail_fast ship container cable_car subway aircraft wheelchair scooter drone" speed="6.53" length="8.80" shape="195894.97,-1057227.81 195892.71,-1057228.56 195890.72,-1057228.42 195888.99,-1057227.38 195887.54,-1057225.46"/>
    </edge>
    <edge id=":1796531998_1" function="internal">
        <lane id=":1796531998_1_0" index="0" disallow="tram rail_urban rail rail_electric rail_fast ship container cable_car subway aircraft wheelchair scooter drone" speed="8.33" length="10.10" shape="195894.97,-1057227.81 195886.03,-1057232.51"/>
    </edge>
    <edge id=":1796531998_2" function="internal">
        <lane id=":1796531998_2_0" index="0" disallow="tram rail_urban rail rail_electric rail_fast ship container cable_car subway aircraft wheelchair scooter drone" speed="8.33" length="9.95" shape="195887.59,-1057235.30 195896.40,-1057230.68"/>
    </edge>
    <edge id=":1796531998_3" function="internal">
        <lane id=":1796531998_3_0" index="0" disallow="tram rail_urban rail rail_electric rail_fast ship container cable_car subway aircraft wheelchair scooter drone" speed="7.11" length="2.14" shape="195887.59,-1057235.30 195889.14,-1057233.82"/>
    </edge>
    <edge id=":1796531998_4" function="internal">
        <lane id=":1796531998_4_0" index="0" disallow="tram rail_urban rail rail_electric rail_fast ship container cable_car subway aircraft wheelchair scooter drone" speed="7.11" length="8.82" shape="195889.14,-1057233.82 195889.65,-1057231.69 195889.12,-1057228.90 195887.54,-1057225.46"/>
    </edge>
    <edge id=":1972200219_0" function="internal">
        <lane id=":1972200219_0_0" index="0" disallow="pedestrian bicycle tram rail_urban rail rail_electric rail_fast ship container cable_car subway aircraft wheelchair scooter drone" speed="16.67" length="0.32" shape="193096.92,-1055039.84 193096.80,-1055039.65"/>
        <lane id=":1972200219_0_1" index="1" disallow="pedestrian bicycle tram rail_urban rail rail_electric rail_fast ship container cable_car subway aircraft wheelchair scooter drone" speed="16.67" length="0.32" shape="193094.20,-1055041.54 193094.04,-1055041.26"/>
        <lane id=":1972200219_0_2" index="2" disallow="pedestrian bicycle tram rail_urban rail rail_electric rail_fast ship container cable_car subway aircraft wheelchair scooter drone" speed="16.67" length="0.32" shape="193091.49,-1055043.23 193091.28,-1055042.87"/>
    </edge>
    <edge id=":1972200226_0" function="internal">
        <lane id=":1972200226_0_0" index="0" disallow="pedestrian bicycle tram rail_urban rail rail_electric rail_fast ship container cable_car subway aircraft wheelchair scooter drone" speed="16.67" length="0.28" shape="193026.70,-1054967.76 193026.80,-1054967.94"/>
        <lane id=":1972200226_0_1" index="1" disallow="pedestrian bicycle tram rail_urban rail rail_electric rail_fast ship container cable_car subway aircraft wheelchair scooter drone" speed="16.67" length="0.28" shape="193029.45,-1054966.13 193029.59,-1054966.37"/>
        <lane id=":1972200226_0_2" index="2" disallow="pedestrian bicycle tram rail_urban rail rail_electric rail_fast ship container cable_car subway aircraft wheelchair scooter drone" speed="16.67" length="0.28" shape="193032.20,-1054964.50 193032.38,-1054964.80"/>
    </edge>
    <edge id=":2090081681_0" function="internal">
        <lane id=":2090081681_0_0" index="0" disallow="pedestrian bicycle tram rail_urban rail rail_electric rail_fast ship container cable_car subway aircraft wheelchair scooter drone" speed="16.67" length="0.27" shape="194014.46,-1056602.77 194014.29,-1056602.47"/>
        <lane id=":2090081681_0_1" index="1" disallow="pedestrian bicycle tram rail_urban rail rail_electric rail_fast ship container cable_car subway aircraft wheelchair scooter drone" speed="16.67" length="0.27" shape="194011.67,-1056604.33 194011.53,-1056604.09"/>
        <lane id=":2090081681_0_2" index="2" disallow="pedestrian bicycle tram rail_urban rail rail_electric rail_fast ship container cable_car subway aircraft wheelchair scooter drone" speed="16.67" length="0.27" shape="194008.87,-1056605.89 194008.77,-1056605.72"/>
    </edge>
    <edge id=":2090114863_0" function="internal">
        <lane id=":2090114863_0_0" index="0" disallow="pedestrian bicycle tram rail_urban rail rail_electric rail_fast ship container cable_car subway aircraft wheelchair scooter drone" speed="16.67" length="0.27" shape="193769.45,-1056188.65 193769.36,-1056188.48"/>
        <lane id=":2090114863_0_1" index="1" disallow="pedestrian bicycle tram rail_urban rail rail_electric rail_fast ship container cable_car subway aircraft wheelchair scooter drone" speed="16.67" length="0.27" shape="193766.71,-1056190.30 193766.57,-1056190.06"/>
        <lane id=":2090114863_0_2" index="2" disallow="pedestrian bicycle tram rail_urban rail rail_electric rail_fast ship container cable_car subway aircraft wheelchair scooter drone" speed="16.67" length="0.27" shape="193763.97,-1056191.94 193763.79,-1056191.64"/>
    </edge>
    <edge id=":2090114865_0" function="internal">
        <lane id=":2090114865_0_0" index="0" disallow="pedestrian bicycle tram rail_urban rail rail_electric rail_fast ship container cable_car subway aircraft wheelchair scooter drone" speed="6.54" length="9.01" shape="193828.59,-1056287.20 193827.66,-1056284.95 193827.68,-1056282.92 193828.65,-1056281.11 193830.56,-1056279.52"/>
        <lane id=":2090114865_0_1" index="1" disallow="pedestrian bicycle tram rail_urban rail rail_electric rail_fast ship container cable_car subway aircraft wheelchair scooter drone" speed="7.36" length="11.66" shape="193828.59,-1056287.20 193826.95,-1056283.75 193826.45,-1056280.86 193827.09,-1056278.54 193828.88,-1056276.80"/>
    </edge>
    <edge id=":2090114865_2" function="internal">
        <lane id=":2090114865_2_0" index="0" disallow="pedestrian bicycle tram rail_urban rail rail_electric rail_fast ship container cable_car subway aircraft wheelchair scooter drone" speed="16.67" length="15.03" shape="193828.59,-1056287.20 193820.89,-1056274.27"/>
        <lane id=":2090114865_2_1" index="1" disallow="pedestrian bicycle tram rail_urban rail rail_electric rail_fast ship container cable_car subway aircraft wheelchair scooter drone" speed="16.67" length="15.03" shape="193825.84,-1056288.83 193818.15,-1056275.92"/>
        <lane id=":2090114865_2_2" index="2" disallow="pedestrian bicycle tram rail_urban rail rail_electric rail_fast ship container cable_car subway aircraft wheelchair scooter drone" speed="16.67" length="15.03" shape="193823.09,-1056290.46 193815.41,-1056277.57"/>
    </edge>
    <edge id=":2090114865_5" function="internal">
        <lane id=":2090114865_5_0" index="0" disallow="tram rail_urban rail rail_electric rail_fast ship container cable_car subway aircraft wheelchair scooter drone" speed="18.05" length="17.92" shape="193813.65,-1056285.80 193816.86,-1056284.16 193820.69,-1056283.26 193825.23,-1056282.06 193830.56,-1056279.52"/>
        <lane id=":2090114865_5_1" index="1" disallow="tram rail_urban rail rail_electric rail_fast ship container cable_car subway aircraft wheelchair scooter drone" speed="18.05" length="17.92" shape="193813.65,-1056285.80 193816.62,-1056283.72 193819.91,-1056281.87 193823.88,-1056279.73 193828.88,-1056276.80"/>
    </edge>
    <edge id=":2090114865_7" function="internal">
        <lane id=":2090114865_7_0" index="0" disallow="pedestrian bicycle tram rail_urban rail rail_electric rail_fast ship container cable_car subway aircraft wheelchair scooter drone" speed="8.51" length="14.48" shape="193813.65,-1056285.80 193817.68,-1056282.19 193820.23,-1056279.07 193821.30,-1056276.43 193820.89,-1056274.27"/>
        <lane id=":2090114865_7_1" index="1" disallow="pedestrian bicycle tram rail_urban rail rail_electric rail_fast ship container cable_car subway aircraft wheelchair scooter drone" speed="7.74" length="11.82" shape="193813.65,-1056285.80 193816.57,-1056283.05 193818.29,-1056280.49 193818.82,-1056278.11 193818.15,-1056275.92"/>
        <lane id=":2090114865_7_2" index="2" disallow="pedestrian bicycle tram rail_urban rail rail_electric rail_fast ship container cable_car subway aircraft wheelchair scooter drone" speed="6.94" length="9.33" shape="193813.65,-1056285.80 193815.46,-1056283.92 193816.35,-1056281.92 193816.33,-1056279.80 193815.41,-1056277.57"/>
    </edge>
    <edge id=":2090114866_0" function="internal">
        <lane id=":2090114866_0_0" index="0" disallow="pedestrian bicycle tram rail_urban rail rail_electric rail_fast ship container cable_car subway aircraft wheelchair scooter drone" speed="13.89" length="13.36" shape="193792.50,-1056285.55 193799.82,-1056296.88"/>
        <lane id=":2090114866_0_1" index="1" disallow="pedestrian bicycle tram rail_urban rail rail_electric rail_fast ship container cable_car subway aircraft wheelchair scooter drone" speed="13.89" length="13.36" shape="193795.26,-1056283.93 193802.51,-1056295.15"/>
        <lane id=":2090114866_0_2" index="2" disallow="pedestrian bicycle tram rail_urban rail rail_electric rail_fast ship container cable_car subway aircraft wheelchair scooter drone" speed="13.89" length="13.36" shape="193798.03,-1056282.32 193805.21,-1056293.43"/>
    </edge>
    <edge id=":2090114866_3" function="internal">
        <lane id=":2090114866_3_0" index="0" disallow="pedestrian bicycle tram rail_urban rail rail_electric rail_fast ship container cable_car subway aircraft wheelchair scooter drone" speed="11.22" length="10.82" shape="193798.03,-1056282.32 193799.80,-1056284.93 193801.50,-1056286.40 193803.61,-1056287.30 193806.60,-1056288.18"/>
    </edge>
    <edge id=":2090327928_0" function="internal">
        <lane id=":2090327928_0_0" index="0" disallow="pedestrian bicycle tram rail_urban rail rail_electric rail_fast ship container cable_car subway aircraft wheelchair scooter drone" speed="16.67" length="0.29" shape="193614.12,-1055923.37 193613.99,-1055923.16"/>
        <lane id=":2090327928_0_1" index="1" disallow="pedestrian bicycle tram rail_urban rail rail_electric rail_fast ship container cable_car subway aircraft wheelchair scooter drone" speed="16.67" length="0.29" shape="193611.36,-1055925.00 193611.22,-1055924.75"/>
        <lane id=":2090327928_0_2" index="2" disallow="pedestrian bicycle tram rail_urban rail rail_electric rail_fast ship container cable_car subway aircraft wheelchair scooter drone" speed="16.67" length="0.29" shape="193608.61,-1055926.64 193608.44,-1055926.35"/>
    </edge>
    <edge id=":2090327937_0" function="internal">
        <lane id=":2090327937_0_0" index="0" disallow="pedestrian bicycle tram rail_urban rail rail_electric rail_fast ship container cable_car subway aircraft wheelchair scooter drone" speed="16.67" length="0.46" shape="193665.44,-1056013.74 193665.29,-1056013.48"/>
        <lane id=":2090327937_0_1" index="1" disallow="pedestrian bicycle tram rail_urban rail rail_electric rail_fast ship container cable_car subway aircraft wheelchair scooter drone" speed="16.67" length="0.46" shape="193662.70,-1056015.40 193662.47,-1056015.00"/>
        <lane id=":2090327937_0_2" index="2" disallow="pedestrian bicycle tram rail_urban rail rail_electric rail_fast ship container cable_car subway aircraft wheelchair scooter drone" speed="16.67" length="0.46" shape="193659.96,-1056017.05 193659.65,-1056016.52"/>
    </edge>
    <edge id=":2090327940_0" function="internal">
        <lane id=":2090327940_0_0" index="0" disallow="pedestrian bicycle tram rail_urban rail rail_electric rail_fast ship container cable_car subway aircraft wheelchair scooter drone" speed="16.67" length="0.30" shape="193716.81,-1056098.73 193716.65,-1056098.47"/>
        <lane id=":2090327940_0_1" index="1" disallow="pedestrian bicycle tram rail_urban rail rail_electric rail_fast ship container cable_car subway aircraft wheelchair scooter drone" speed="16.67" length="0.30" shape="193714.07,-1056100.38 193713.91,-1056100.12"/>
        <lane id=":2090327940_0_2" index="2" disallow="pedestrian bicycle tram rail_urban rail rail_electric rail_fast ship container cable_car subway aircraft wheelchair scooter drone" speed="16.67" length="0.30" shape="193711.33,-1056102.03 193711.17,-1056101.78"/>
    </edge>
    <edge id=":2090327941_0" function="internal">
        <lane id=":2090327941_0_0" index="0" disallow="pedestrian bicycle tram rail_urban rail rail_electric rail_fast ship container cable_car subway aircraft wheelchair scooter drone" speed="16.67" length="0.27" shape="193744.19,-1056144.19 193744.01,-1056143.88"/>
        <lane id=":2090327941_0_1" index="1" disallow="pedestrian bicycle tram rail_urban rail rail_electric rail_fast ship container cable_car subway aircraft wheelchair scooter drone" speed="16.67" length="0.27" shape="193741.41,-1056145.77 193741.27,-1056145.53"/>
        <lane id=":2090327941_0_2" index="2" disallow="pedestrian bicycle tram rail_urban rail rail_electric rail_fast ship container cable_car subway aircraft wheelchair scooter drone" speed="16.67" length="0.27" shape="193738.63,-1056147.35 193738.53,-1056147.18"/>
    </edge>
    <edge id=":2090327964_0" function="internal">
        <lane id=":2090327964_0_0" index="0" disallow="pedestrian bicycle tram rail_urban rail rail_electric rail_fast ship container cable_car subway aircraft wheelchair scooter drone" speed="16.67" length="0.33" shape="194081.31,-1056722.38 194081.19,-1056722.18"/>
        <lane id=":2090327964_0_1" index="1" disallow="pedestrian bicycle tram rail_urban rail rail_electric rail_fast ship container cable_car subway aircraft wheelchair scooter drone" speed="16.67" length="0.33" shape="194078.57,-1056724.03 194078.40,-1056723.75"/>