<?xml version="1.0" encoding="UTF-8"?>

<!-- generated on 2025-12-06 12:05:10 by Eclipse SUMO netedit Version 1.22.0
<neteditConfiguration xmlns:xsi="http://www.w3.org/2001/XMLSchema-instance" xsi:noNamespaceSchemaLocation="http://sumo.dlr.de/xsd/neteditConfiguration.xsd">

    <input>
        <sumo-net-file value="C:\Users\USUARIO(A)\Documents\GitHub\adaptative-traffic-lights\UFAL\ufalNetwork.net.xml"/>
    </input>

    <output>
        <output-file value="C:\Users\USUARIO(A)\Documents\GitHub\adaptative-traffic-lights\UFAL\ufalNetwork.net.xml"/>
    </output>

    <processing>
        <geometry.min-radius.fix.railways value="false"/>
        <geometry.max-grade.fix value="false"/>
        <offset.disable-normalization value="true"/>
        <lefthand value="0"/>
    </processing>

    <junctions>
        <no-turnarounds value="true"/>
        <junctions.corner-detail value="5"/>
        <junctions.limit-turn-speed value="5.50"/>
        <rectangular-lane-cut value="0"/>
    </junctions>

    <pedestrian>
        <walkingareas value="0"/>
    </pedestrian>

</neteditConfiguration>
-->

<net version="1.20" junctionCornerDetail="5" limitTurnSpeed="5.50" xmlns:xsi="http://www.w3.org/2001/XMLSchema-instance" xsi:noNamespaceSchemaLocation="http://sumo.dlr.de/xsd/net_file.xsd">

    <location netOffset="-193174.16,1059295.64" convBoundary="0.00,0.00,2871.28,4106.36" origBoundary="-35.817751,-9.650921,-35.733436,-9.528110" projParameter="+proj=utm +zone=25 +ellps=WGS84 +datum=WGS84 +units=m +no_defs"/>

    <type id="highway.residential" priority="3" numLanes="1" speed="13.89" disallow="tram rail_urban rail rail_electric rail_fast ship container cable_car subway aircraft wheelchair scooter drone" oneway="0"/>
    <type id="highway.unclassified" priority="4" numLanes="1" speed="13.89" disallow="tram rail_urban rail rail_electric rail_fast ship container cable_car subway aircraft wheelchair scooter drone" oneway="0"/>

    <edge id=":1796531998_0" function="internal">
        <lane id=":1796531998_0_0" index="0" disallow="tram rail_urban rail rail_electric rail_fast ship container cable_car subway aircraft wheelchair scooter drone" speed="6.53" length="8.80" shape="2720.81,2067.83 2718.55,2067.08 2716.56,2067.22 2714.83,2068.26 2713.38,2070.18"/>
    </edge>
    <edge id=":1796531998_1" function="internal">
        <lane id=":1796531998_1_0" index="0" disallow="tram rail_urban rail rail_electric rail_fast ship container cable_car subway aircraft wheelchair scooter drone" speed="8.33" length="10.10" shape="2720.81,2067.83 2711.87,2063.13"/>
    </edge>
    <edge id=":1796531998_2" function="internal">
        <lane id=":1796531998_2_0" index="0" disallow="tram rail_urban rail rail_electric rail_fast ship container cable_car subway aircraft wheelchair scooter drone" speed="8.33" length="9.95" shape="2713.43,2060.34 2722.24,2064.96"/>
    </edge>
    <edge id=":1796531998_3" function="internal">
        <lane id=":1796531998_3_0" index="0" disallow="tram rail_urban rail rail_electric rail_fast ship container cable_car subway aircraft wheelchair scooter drone" speed="7.11" length="2.14" shape="2713.43,2060.34 2714.98,2061.82"/>
    </edge>
    <edge id=":1796531998_4" function="internal">
        <lane id=":1796531998_4_0" index="0" disallow="tram rail_urban rail rail_electric rail_fast ship container cable_car subway aircraft wheelchair scooter drone" speed="7.11" length="8.82" shape="2714.98,2061.82 2715.49,2063.95 2714.96,2066.74 2713.38,2070.18"/>
    </edge>
    <edge id=":2621508822_0" function="internal">
        <lane id=":2621508822_0_0" index="0" disallow="tram rail_urban rail rail_electric rail_fast ship container cable_car subway aircraft wheelchair scooter drone" speed="11.11" length="10.68" shape="2647.70,2206.21 2644.93,2205.04 2642.78,2204.54 2640.58,2204.03 2637.63,2202.81"/>
        <lane id=":2621508822_0_1" index="1" disallow="tram rail_urban rail rail_electric rail_fast ship container cable_car subway aircraft wheelchair scooter drone" speed="11.11" length="10.68" shape="2647.70,2206.21 2645.15,2204.59 2643.51,2203.11 2641.80,2201.62 2639.07,2199.96"/>
    </edge>
    <edge id=":2621508822_2" function="internal">
        <lane id=":2621508822_2_0" index="0" disallow="tram rail_urban rail rail_electric rail_fast ship container cable_car subway aircraft wheelchair scooter drone" speed="5.82" length="6.96" shape="2645.18,2199.05 2644.18,2200.29 2642.83,2200.86 2641.13,2200.74 2639.07,2199.96"/>
    </edge>
    <edge id=":2693638272_0" function="internal">
        <lane id=":2693638272_0_0" index="0" disallow="tram rail_urban rail rail_electric rail_fast ship container cable_car subway aircraft wheelchair scooter drone" speed="6.09" length="7.23" shape="2845.47,2299.40 2844.35,2301.01 2842.96,2301.92 2841.32,2302.14 2839.42,2301.68"/>
    </edge>
    <edge id=":2693638272_1" function="internal">
        <lane id=":2693638272_1_0" index="0" disallow="tram rail_urban rail rail_electric rail_fast ship container cable_car subway aircraft wheelchair scooter drone" speed="3.91" length="2.41" shape="2840.60,2298.70 2841.24,2298.86 2841.79,2298.78 2842.25,2298.48 2842.62,2297.95"/>
    </edge>
    <edge id=":2693638278_0" function="internal">
        <lane id=":2693638278_0_0" index="0" disallow="tram rail_urban rail rail_electric rail_fast ship container cable_car subway aircraft wheelchair scooter drone" speed="11.11" length="9.43" shape="2672.45,2146.54 2668.11,2154.91"/>
    </edge>
    <edge id=":2693638278_1" function="internal">
        <lane id=":2693638278_1_0" index="0" disallow="tram rail_urban rail rail_electric rail_fast ship container cable_car subway aircraft wheelchair scooter drone" speed="5.99" length="8.01" shape="2672.45,2146.54 2670.96,2148.93 2669.48,2150.37 2667.99,2150.86 2666.50,2150.39"/>
    </edge>
    <edge id=":2693638278_2" function="internal">
        <lane id=":2693638278_2_0" index="0" disallow="tram rail_urban rail rail_electric rail_fast ship container cable_car subway aircraft wheelchair scooter drone" speed="6.32" length="7.91" shape="2668.21,2147.68 2669.24,2148.79 2669.56,2150.36 2669.19,2152.40 2668.11,2154.91"/>
    </edge>
    <edge id=":2693638281_0" function="internal">
        <lane id=":2693638281_0_0" index="0" disallow="tram rail_urban rail rail_electric rail_fast ship container cable_car subway aircraft wheelchair scooter drone" speed="6.31" length="7.92" shape="2663.35,2148.39 2662.32,2147.28 2662.00,2145.71 2662.39,2143.67 2663.49,2141.17"/>
    </edge>
    <edge id=":2693638281_1" function="internal">
        <lane id=":2693638281_1_0" index="0" disallow="tram rail_urban rail rail_electric rail_fast ship container cable_car subway aircraft wheelchair scooter drone" speed="11.11" length="9.44" shape="2659.11,2149.53 2663.49,2141.17"/>
    </edge>
    <edge id=":2693638281_2" function="internal">
        <lane id=":2693638281_2_0" index="0" disallow="tram rail_urban rail rail_electric rail_fast ship container cable_car subway aircraft wheelchair scooter drone" speed="5.99" length="8.01" shape="2659.11,2149.53 2660.60,2147.14 2662.08,2145.70 2663.57,2145.22 2665.06,2145.68"/>
    </edge>
    <edge id=":2693638287_0" function="internal">
        <lane id=":2693638287_0_0" index="0" disallow="tram rail_urban rail rail_electric rail_fast ship container cable_car subway aircraft wheelchair scooter drone" speed="11.11" length="9.37" shape="2693.89,2105.36 2689.46,2113.62"/>
    </edge>
    <edge id=":2693638287_1" function="internal">
        <lane id=":2693638287_1_0" index="0" disallow="tram rail_urban rail rail_electric rail_fast ship container cable_car subway aircraft wheelchair scooter drone" speed="6.02" length="7.93" shape="2693.89,2105.36 2692.35,2107.70 2690.84,2109.10 2689.36,2109.58 2687.92,2109.13"/>
    </edge>
    <edge id=":2693638287_2" function="internal">
        <lane id=":2693638287_2_0" index="0" disallow="tram rail_urban rail rail_electric rail_fast ship container cable_car subway aircraft wheelchair scooter drone" speed="6.31" length="7.85" shape="2689.64,2106.44 2690.62,2107.52 2690.92,2109.08 2690.54,2111.11 2689.46,2113.62"/>
    </edge>
    <edge id=":2693638289_0" function="internal">
        <lane id=":2693638289_0_0" index="0" disallow="tram rail_urban rail rail_electric rail_fast ship container cable_car subway aircraft wheelchair scooter drone" speed="6.26" length="7.91" shape="2685.08,2107.33 2684.07,2106.22 2683.77,2104.65 2684.20,2102.63 2685.36,2100.14"/>
    </edge>
    <edge id=":2693638289_1" function="internal">
        <lane id=":2693638289_1_0" index="0" disallow="tram rail_urban rail rail_electric rail_fast ship container cable_car subway aircraft wheelchair scooter drone" speed="11.11" length="9.45" shape="2680.84,2108.44 2685.36,2100.14"/>
    </edge>
    <edge id=":2693638289_2" function="internal">
        <lane id=":2693638289_2_0" index="0" disallow="tram rail_urban rail rail_electric rail_fast ship container cable_car subway aircraft wheelchair scooter drone" speed="6.00" length="7.99" shape="2680.84,2108.44 2682.35,2106.07 2683.84,2104.64 2685.33,2104.16 2686.81,2104.63"/>
    </edge>
    <edge id=":2693638295_0" function="internal">
        <lane id=":2693638295_0_0" index="0" disallow="tram rail_urban rail rail_electric rail_fast ship container cable_car subway aircraft wheelchair scooter drone" speed="8.33" length="10.53" shape="2711.70,2063.04 2702.46,2057.97"/>
    </edge>
    <edge id=":2693638295_1" function="internal">
        <lane id=":2693638295_1_0" index="0" disallow="tram rail_urban rail rail_electric rail_fast ship container cable_car subway aircraft wheelchair scooter drone" speed="8.33" length="10.57" shape="2703.98,2055.16 2713.25,2060.24"/>
    </edge>
    <edge id=":2693638295_2" function="internal">
        <lane id=":2693638295_2_0" index="0" disallow="tram rail_urban rail rail_electric rail_fast ship container cable_car subway aircraft wheelchair scooter drone" speed="6.48" length="9.03" shape="2704.66,2065.55 2705.55,2063.24 2705.48,2061.20 2704.45,2059.45 2702.46,2057.97"/>
    </edge>
    <edge id=":2693638295_3" function="internal">
        <lane id=":2693638295_3_0" index="0" disallow="tram rail_urban rail rail_electric rail_fast ship container cable_car subway aircraft wheelchair scooter drone" speed="7.19" length="11.25" shape="2704.66,2065.55 2706.81,2062.33 2708.96,2060.38 2711.11,2059.68 2713.25,2060.24"/>
    </edge>
    <edge id=":3719169632_0" function="internal">
        <lane id=":3719169632_0_0" index="0" disallow="tram rail_urban rail rail_electric rail_fast ship container cable_car subway aircraft wheelchair scooter drone" speed="8.33" length="0.31" shape="2415.35,1904.59 2415.07,1904.45"/>
    </edge>
    <edge id=":3719169632_1" function="internal">
        <lane id=":3719169632_1_0" index="0" disallow="tram rail_urban rail rail_electric rail_fast ship container cable_car subway aircraft wheelchair scooter drone" speed="8.33" length="0.28" shape="2416.59,1901.63 2416.83,1901.76"/>
    </edge>
    <edge id=":3719169669_0" function="internal">
        <lane id=":3719169669_0_0" index="0" disallow="tram rail_urban rail rail_electric rail_fast ship container cable_car subway aircraft wheelchair scooter drone" speed="8.33" length="0.28" shape="2195.16,1786.98 2194.91,1786.85"/>
    </edge>
    <edge id=":3719169669_1" function="internal">
        <lane id=":3719169669_1_0" index="0" disallow="tram rail_urban rail rail_electric rail_fast ship container cable_car subway aircraft wheelchair scooter drone" speed="8.33" length="0.31" shape="2196.38,1784.01 2196.66,1784.15"/>
    </edge>
    <edge id=":3719169671_0" function="internal">
        <lane id=":3719169671_0_0" index="0" disallow="tram rail_urban rail rail_electric rail_fast ship container cable_car subway aircraft wheelchair scooter drone" speed="8.33" length="0.31" shape="2155.41,1766.42 2155.14,1766.27"/>
    </edge>
    <edge id=":3719169671_1" function="internal">
        <lane id=":3719169671_1_0" index="0" disallow="tram rail_urban rail rail_electric rail_fast ship container cable_car subway aircraft wheelchair scooter drone" speed="8.33" length="0.27" shape="2156.64,1763.45 2156.89,1763.58"/>
    </edge>
    <edge id=":4068707746_0" function="internal">
        <lane id=":4068707746_0_0" index="0" disallow="tram rail_urban rail rail_electric rail_fast ship container cable_car subway aircraft wheelchair scooter drone" speed="13.89" length="8.61" shape="2830.51,2298.13 2828.08,2297.39 2826.32,2297.18 2824.57,2296.94 2822.18,2296.10"/>
    </edge>
    <edge id=":4068707746_1" function="internal">
        <lane id=":4068707746_1_0" index="0" disallow="tram rail_urban rail rail_electric rail_fast ship container cable_car subway aircraft wheelchair scooter drone" speed="13.89" length="7.66" shape="2826.23,2289.95 2827.95,2291.40 2828.86,2292.77 2829.82,2294.03 2831.69,2295.15"/>
    </edge>
    <edge id=":4068707746_2" function="internal">
        <lane id=":4068707746_2_0" index="0" disallow="tram rail_urban rail rail_electric rail_fast ship container cable_car subway aircraft wheelchair scooter drone" speed="11.06" length="59.10" shape="2826.23,2289.95 2844.59,2301.78 2850.03,2306.75 2842.56,2304.86 2822.18,2296.10"/>
    </edge>
    <edge id=":4068707754_0" function="internal">
        <lane id=":4068707754_0_0" index="0" disallow="tram rail_urban rail rail_electric rail_fast ship container cable_car subway aircraft wheelchair scooter drone" speed="13.89" length="0.10" shape="2726.86,2235.34 2726.86,2235.34"/>
    </edge>
    <edge id=":4068708392_0" function="internal">
        <lane id=":4068708392_0_0" index="0" disallow="tram rail_urban rail rail_electric rail_fast ship container cable_car subway aircraft wheelchair scooter drone" speed="8.33" length="0.14" shape="2789.85,2102.21 2789.82,2102.19 2789.79,2102.17 2789.77,2102.16 2789.73,2102.14"/>
    </edge>
    <edge id=":4068708392_1" function="internal">
        <lane id=":4068708392_1_0" index="0" disallow="tram rail_urban rail rail_electric rail_fast ship container cable_car subway aircraft wheelchair scooter drone" speed="8.33" length="0.43" shape="2791.16,2099.27 2791.27,2099.33 2791.35,2099.37 2791.42,2099.41 2791.53,2099.48"/>
    </edge>
    <edge id=":431013120_0" function="internal">
        <lane id=":431013120_0_0" index="0" speed="13.89" length="8.59" shape="1557.40,1436.76 1556.76,1439.20 1557.06,1441.08 1557.35,1442.95 1556.68,1445.39"/>
        <lane id=":431013120_0_1" index="1" speed="13.89" length="8.59" shape="1554.53,1435.35 1553.89,1437.78 1554.20,1439.65 1554.49,1441.52 1553.83,1443.94"/>
        <lane id=":431013120_0_2" index="2" speed="13.89" length="8.59" shape="1551.66,1433.94 1551.03,1436.37 1551.33,1438.23 1551.63,1440.09 1550.97,1442.50"/>
        <lane id=":431013120_0_3" index="3" speed="13.89" length="8.59" shape="1551.66,1433.94 1548.12,1441.05"/>
    </edge>
    <edge id=":7029377716_0" function="internal">
        <lane id=":7029377716_0_0" index="0" disallow="tram rail_urban rail rail_electric rail_fast ship container cable_car subway aircraft wheelchair scooter drone" speed="13.89" length="0.22" shape="2736.37,2240.89 2736.56,2240.99"/>
    </edge>
    <edge id=":7029377717_0" function="internal">
        <lane id=":7029377717_0_0" index="0" disallow="tram rail_urban rail rail_electric rail_fast ship container cable_car subway aircraft wheelchair scooter drone" speed="13.89" length="0.29" shape="2730.95,2249.98 2730.69,2249.84"/>
    </edge>
    <edge id=":7031776929_0" function="internal">
        <lane id=":7031776929_0_0" index="0" disallow="tram rail_urban rail rail_electric rail_fast ship container cable_car subway aircraft wheelchair scooter drone" speed="13.89" length="0.20" shape="2817.97,2294.19 2817.79,2294.10"/>
    </edge>
    <edge id=":795820937_0" function="internal">
        <lane id=":795820937_0_0" index="0" disallow="tram rail_urban rail rail_electric rail_fast ship container cable_car subway aircraft wheelchair scooter drone" speed="6.92" length="10.35" shape="2651.00,2187.85 2649.87,2190.80 2649.76,2193.28 2650.69,2195.28 2652.66,2196.81"/>
    </edge>
    <edge id=":795820937_1" function="internal">
        <lane id=":795820937_1_0" index="0" disallow="tram rail_urban rail rail_electric rail_fast ship container cable_car subway aircraft wheelchair scooter drone" speed="9.72" length="12.43" shape="2651.00,2187.85 2645.27,2198.88"/>
    </edge>
    <edge id=":795820937_2" function="internal">
        <lane id=":795820937_2_0" index="0" disallow="tram rail_urban rail rail_electric rail_fast ship container cable_car subway aircraft wheelchair scooter drone" speed="11.11" length="10.88" shape="2643.86,2190.47 2646.65,2192.18 2648.41,2193.70 2650.09,2195.20 2652.66,2196.81"/>
    </edge>
    <edge id=":795820937_3" function="internal">
        <lane id=":795820937_3_0" index="0" disallow="tram rail_urban rail rail_electric rail_fast ship container cable_car subway aircraft wheelchair scooter drone" speed="5.83" length="7.08" shape="2642.40,2193.32 2644.29,2194.54 2645.39,2195.87 2645.72,2197.32 2645.27,2198.88"/>
    </edge>
    <edge id=":dsd_0" function="internal">
        <lane id=":dsd_0_0" index="0" disallow="tram rail_urban rail rail_electric rail_fast ship container cable_car subway aircraft wheelchair scooter drone" speed="6.54" length="8.98" shape="2634.21,2185.62 2636.55,2186.39 2638.58,2186.24 2640.31,2185.16 2641.73,2183.17"/>
    </edge>
    <edge id=":dsd_1" function="internal">
        <lane id=":dsd_1_0" index="0" disallow="tram rail_urban rail rail_electric rail_fast ship container cable_car subway aircraft wheelchair scooter drone" speed="11.11" length="10.89" shape="2634.21,2185.62 2643.68,2190.38"/>
        <lane id=":dsd_1_1" index="1" disallow="tram rail_urban rail rail_electric rail_fast ship container cable_car subway aircraft wheelchair scooter drone" speed="11.11" length="10.89" shape="2634.21,2185.62 2636.66,2187.39 2638.06,2189.31 2639.53,2191.29 2642.22,2193.23"/>
    </edge>
    <edge id=":dsd_3" function="internal">
        <lane id=":dsd_3_0" index="0" disallow="tram rail_urban rail rail_electric rail_fast ship container cable_car subway aircraft wheelchair scooter drone" speed="11.11" length="12.33" shape="2636.12,2194.14 2641.73,2183.17"/>
    </edge>
    <edge id=":dsd_4" function="internal">
        <lane id=":dsd_4_0" index="0" disallow="tram rail_urban rail rail_electric rail_fast ship container cable_car subway aircraft wheelchair scooter drone" speed="5.80" length="6.99" shape="2636.12,2194.14 2637.11,2192.88 2638.45,2192.31 2640.16,2192.42 2642.22,2193.23"/>
    </edge>
    <edge id=":entradaufalJunction_0" function="internal">
        <lane id=":entradaufalJunction_0_0" index="0" speed="13.89" length="7.98" shape="2618.17,2177.59 2625.28,2181.22"/>
    </edge>
    <edge id=":saidaufalJun11ction_0" function="internal">
        <lane id=":saidaufalJun11ction_0_0" index="0" disallow="tram rail_urban rail rail_electric rail_fast ship container cable_car subway aircraft wheelchair scooter drone" speed="11.11" length="10.70" shape="2637.45,2202.72 2627.98,2197.74"/>
    </edge>
    <edge id=":saidaufalJun11ction_1" function="internal">
        <lane id=":saidaufalJun11ction_1_0" index="0" disallow="tram rail_urban rail rail_electric rail_fast ship container cable_car subway aircraft wheelchair scooter drone" speed="5.84" length="7.06" shape="2638.89,2199.87 2637.02,2198.66 2635.92,2197.34 2635.59,2195.89 2636.03,2194.32"/>
    </edge>
    <edge id=":saidaufalJunction_0" function="internal">
        <lane id=":saidaufalJunction_0_0" index="0" speed="13.89" length="8.39" shape="2618.67,2192.67 2616.28,2191.94 2614.41,2192.18 2612.54,2192.43 2610.13,2191.74"/>
        <lane id=":saidaufalJunction_0_1" index="1" speed="13.89" length="8.39" shape="2618.67,2192.67 2611.61,2188.90"/>
    </edge>
    <edge id=":tl1Junction_0" function="internal">
        <lane id=":tl1Junction_0_0" index="0" speed="6.71" length="12.65" shape="390.04,3466.19 386.33,3464.30 383.49,3464.04 381.51,3465.41 380.39,3468.43"/>
    </edge>
    <edge id=":tl1Junction_1" function="internal">
        <lane id=":tl1Junction_1_0" index="0" speed="11.48" length="25.27" shape="390.04,3466.19 381.61,3460.34 375.81,3455.58 372.64,3451.90 372.11,3449.31"/>
        <lane id=":tl1Junction_1_1" index="1" speed="10.86" length="22.54" shape="390.04,3466.19 382.82,3461.09 377.93,3456.76 375.35,3453.21 375.10,3450.44"/>
        <lane id=":tl1Junction_1_2" index="2" speed="10.23" length="19.89" shape="390.04,3466.19 384.04,3461.83 380.05,3457.94 378.06,3454.53 378.09,3451.58"/>
    </edge>
    <edge id=":tl1Junction_4" function="internal">
        <lane id=":tl1Junction_4_0" index="0" speed="12.84" length="14.48" shape="389.00,3458.47 386.40,3460.93 384.98,3462.99 384.20,3465.43 383.54,3468.99"/>
        <lane id=":tl1Junction_4_1" index="1" speed="13.89" length="14.48" shape="386.91,3456.05 383.83,3458.94 382.12,3461.37 381.18,3464.23 380.39,3468.43"/>
        <lane id=":tl1Junction_4_2" index="2" speed="13.89" length="14.48" shape="384.82,3453.62 381.26,3456.95 379.27,3459.74 378.16,3463.03 377.24,3467.86"/>
    </edge>
    <edge id=":tl1Junction_7" function="internal">
        <lane id=":tl1Junction_7_0" index="0" speed="13.89" length="10.05" shape="367.42,3456.40 369.23,3454.61 370.35,3453.24 371.17,3451.68 372.11,3449.31"/>
        <lane id=":tl1Junction_7_1" index="1" speed="13.89" length="10.05" shape="369.64,3458.71 371.75,3456.62 373.05,3455.02 374.00,3453.20 375.10,3450.44"/>
        <lane id=":tl1Junction_7_2" index="2" speed="13.89" length="10.05" shape="371.86,3461.01 374.27,3458.63 375.75,3456.81 376.84,3454.73 378.09,3451.58"/>
    </edge>
    <edge id=":tl2Junction_0" function="internal">
        <lane id=":tl2Junction_0_0" index="0" speed="5.97" length="9.09" shape="654.00,3008.21 652.34,3010.22 651.91,3012.10 652.70,3013.87 654.72,3015.52"/>
    </edge>
    <edge id=":tl2Junction_1" function="internal">
        <lane id=":tl2Junction_1_0" index="0" speed="13.89" length="17.78" shape="654.00,3008.21 650.46,3011.22 648.00,3013.46 646.37,3016.14 645.32,3020.49"/>
        <lane id=":tl2Junction_1_1" index="1" speed="13.89" length="17.78" shape="651.84,3005.84 647.83,3009.30 645.10,3011.91 643.32,3015.03 642.15,3020.01"/>
        <lane id=":tl2Junction_1_2" index="2" speed="13.89" length="17.78" shape="649.69,3003.48 645.21,3007.38 642.21,3010.36 640.27,3013.91 638.99,3019.53"/>
    </edge>
    <edge id=":tl2Junction_4" function="internal">
        <lane id=":tl2Junction_4_0" index="0" speed="13.85" length="10.40" shape="628.37,3009.98 630.23,3008.20 631.35,3006.81 632.13,3005.20 632.95,3002.76"/>
        <lane id=":tl2Junction_4_1" index="1" speed="13.89" length="10.40" shape="630.54,3012.33 632.75,3010.21 634.10,3008.56 635.03,3006.64 636.00,3003.73"/>
        <lane id=":tl2Junction_4_2" index="2" speed="13.89" length="10.40" shape="632.71,3014.68 635.28,3012.22 636.84,3010.30 637.92,3008.07 639.05,3004.70"/>
    </edge>
    <edge id=":tl2Junction_7" function="internal">
        <lane id=":tl2Junction_7_0" index="0" speed="11.05" length="21.93" shape="632.71,3014.68 636.11,3012.94 640.64,3012.95 646.30,3014.72 653.07,3018.26"/>
    </edge>
    <edge id=":tl2Junction_8" function="internal">
        <lane id=":tl2Junction_8_0" index="0" speed="6.63" length="13.71" shape="632.71,3014.68 637.07,3012.47 640.09,3012.62 641.79,3015.13 642.15,3020.01"/>
        <lane id=":tl2Junction_8_1" index="1" speed="5.77" length="13.71" shape="632.71,3014.68 636.09,3013.54 638.27,3013.96 639.24,3015.96 638.99,3019.53"/>
    </edge>
    <edge id=":tl3Junction_0" function="internal">
        <lane id=":tl3Junction_0_0" index="0" speed="6.57" length="13.32" shape="1475.09,1590.78 1471.50,1588.17 1468.74,1587.59 1466.81,1589.04 1465.70,1592.52"/>
    </edge>
    <edge id=":tl3Junction_1" function="internal">
        <lane id=":tl3Junction_1_0" index="0" speed="13.89" length="32.43" shape="1475.09,1590.78 1466.57,1582.62 1460.44,1575.71 1456.70,1570.05 1455.37,1565.64"/>
        <lane id=":tl3Junction_1_1" index="1" speed="13.89" length="29.92" shape="1477.24,1588.41 1469.16,1580.73 1463.35,1574.35 1459.82,1569.28 1458.56,1565.52"/>
    </edge>
    <edge id=":tl3Junction_3" function="internal">
        <lane id=":tl3Junction_3_0" index="0" speed="5.64" length="9.27" shape="1485.96,1571.29 1483.96,1573.25 1483.44,1575.01 1484.41,1576.56 1486.87,1577.92"/>
        <lane id=":tl3Junction_3_1" index="1" speed="6.58" length="13.20" shape="1485.96,1571.29 1482.76,1574.28 1481.64,1576.88 1482.62,1579.09 1485.70,1580.90"/>
    </edge>
    <edge id=":tl3Junction_5" function="internal">
        <lane id=":tl3Junction_5_0" index="0" speed="13.89" length="28.90" shape="1485.96,1571.29 1478.92,1576.26 1474.05,1580.13 1470.87,1585.01 1468.87,1593.00"/>
        <lane id=":tl3Junction_5_1" index="1" speed="13.89" length="31.40" shape="1484.04,1568.73 1476.43,1574.16 1471.22,1578.44 1467.84,1583.81 1465.70,1592.52"/>
        <lane id=":tl3Junction_5_2" index="2" speed="13.89" length="33.79" shape="1482.12,1566.17 1473.91,1572.23 1468.32,1577.19 1464.73,1583.10 1462.54,1592.03"/>
    </edge>
    <edge id=":tl3Junction_8" function="internal">
        <lane id=":tl3Junction_8_0" index="0" speed="8.48" length="23.51" shape="1480.20,1563.61 1473.90,1567.87 1468.03,1570.48 1463.64,1570.11 1461.76,1565.40"/>
    </edge>
    <edge id=":tl3Junction_9" function="internal">
        <lane id=":tl3Junction_9_0" index="0" speed="8.98" length="8.90" shape="1451.90,1573.50 1453.48,1571.85 1454.59,1569.99 1455.22,1567.92 1455.37,1565.64"/>
        <lane id=":tl3Junction_9_1" index="1" speed="10.27" length="11.80" shape="1453.97,1575.94 1456.07,1573.76 1457.53,1571.29 1458.36,1568.54 1458.56,1565.52"/>
        <lane id=":tl3Junction_9_2" index="2" speed="11.41" length="14.69" shape="1456.04,1578.38 1458.65,1575.66 1460.48,1572.59 1461.51,1569.17 1461.76,1565.40"/>
    </edge>
    <edge id=":tl4Junction_0" function="internal">
        <lane id=":tl4Junction_0_0" index="0" speed="6.65" length="6.66" shape="1604.53,1323.89 1603.17,1324.99 1602.30,1326.30 1601.90,1327.84 1601.97,1329.58"/>
        <lane id=":tl4Junction_0_1" index="1" speed="8.18" length="10.46" shape="1602.84,1321.17 1600.71,1322.90 1599.33,1324.97 1598.70,1327.38 1598.82,1330.12"/>
        <lane id=":tl4Junction_0_2" index="2" speed="9.47" length="14.27" shape="1601.14,1318.46 1598.24,1320.82 1596.36,1323.64 1595.50,1326.92 1595.66,1330.66"/>
    </edge>
    <edge id=":tl4Junction_3" function="internal">
        <lane id=":tl4Junction_3_0" index="0" speed="6.98" length="6.59" shape="1581.05,1320.20 1582.33,1319.06 1583.18,1317.73 1583.61,1316.21 1583.61,1314.49"/>
        <lane id=":tl4Junction_3_1" index="1" speed="8.48" length="10.06" shape="1582.88,1322.82 1584.83,1321.09 1586.14,1319.05 1586.79,1316.73 1586.78,1314.12"/>
        <lane id=":tl4Junction_3_2" index="2" speed="9.76" length="13.53" shape="1584.71,1325.45 1587.34,1323.11 1589.09,1320.38 1589.97,1317.25 1589.96,1313.74"/>
    </edge>

    <edge id="-263722483" from="2693638289" to="2693638287" priority="3" type="highway.residential">
        <lane id="-263722483_0" index="0" disallow="tram rail_urban rail rail_electric rail_fast ship container cable_car subway aircraft wheelchair scooter drone" speed="8.33" length="3.36" shape="2686.81,2104.63 2689.64,2106.44"/>
    </edge>
    <edge id="-263722484" from="2693638281" to="2693638278" priority="3" type="highway.residential">
        <lane id="-263722484_0" index="0" disallow="tram rail_urban rail rail_electric rail_fast ship container cable_car subway aircraft wheelchair scooter drone" speed="8.33" length="3.74" shape="2665.06,2145.68 2668.21,2147.68"/>
    </edge>
    <edge id="-263722499#3" from="3719169671" to="7593373226" priority="3" type="highway.residential">
        <lane id="-263722499#3_0" index="0" disallow="tram rail_urban rail rail_electric rail_fast ship container cable_car subway aircraft wheelchair scooter drone" speed="8.33" length="40.57" shape="2155.14,1766.27 2119.33,1747.20"/>
    </edge>
    <edge id="-263722499#4" from="3719169669" to="3719169671" priority="3" type="highway.residential">
        <lane id="-263722499#4_0" index="0" disallow="tram rail_urban rail rail_electric rail_fast ship container cable_car subway aircraft wheelchair scooter drone" speed="8.33" length="44.47" shape="2194.91,1786.85 2155.41,1766.42"/>
    </edge>
    <edge id="-263722499#5" from="3719169632" to="3719169669" priority="3" type="highway.residential" shape="2415.96,1903.11 2306.11,1843.89 2195.78,1785.50">
        <lane id="-263722499#5_0" index="0" disallow="tram rail_urban rail rail_electric rail_fast ship container cable_car subway aircraft wheelchair scooter drone" speed="8.33" length="249.32" shape="2415.07,1904.45 2305.36,1845.30 2195.16,1786.98"/>
    </edge>
    <edge id="-263722499#6" from="2693638295" to="3719169632" priority="3" type="highway.residential" shape="2708.18,2059.25 2555.12,1976.27 2415.96,1903.11">
        <lane id="-263722499#6_0" index="0" disallow="tram rail_urban rail rail_electric rail_fast ship container cable_car subway aircraft wheelchair scooter drone" speed="8.33" length="325.52" shape="2702.46,2057.97 2554.37,1977.68 2415.35,1904.59"/>
    </edge>
    <edge id="-263722499#7" from="1796531998" to="2693638295" priority="3" type="highway.residential">
        <lane id="-263722499#7_0" index="0" disallow="tram rail_urban rail rail_electric rail_fast ship container cable_car subway aircraft wheelchair scooter drone" speed="8.33" length="0.20" shape="2711.87,2063.13 2711.70,2063.04"/>
    </edge>
    <edge id="-263722499#8" from="4068708392" to="1796531998" priority="3" type="highway.residential">