<trips>
    <!-- SENTIDO C -->
    <flow id="C_bus2" type="bus2" begin="0" end="3200" departLane="best" departPos="last" number="120" from="cOrigem"
        to="cDestino" />
    <flow id="C_bus3" type="bus3" begin="0" end="3200" departLane="best" departPos="last" number="25" from="cOrigem"
        to="cDestino" />
    <flow id="C_truck4" type="truck4" begin="0" end="3200" departLane="best" departPos="last" number="25" from="cOrigem"
        to="cDestino" />
    <flow id="C_truck5" type="truck5" begin="0" end="3200" departLane="best" departPos="last" number="10" from="cOrigem"
        to="cDestino" />
    <flow id="C_truck6" type="truck6" begin="0" end="3200" departLane="best" departPos="last" number="8" from="cOrigem"
        to="cDestino" />
    <flow id="C_truck7" type="truck7" begin="0" end="3200" departLane="best" departPos="last" number="11" from="cOrigem"
        to="cDestino" />
    <flow id="C_truck8" type="truck8" begin="0" end="3200" departLane="best" departPos="last" number="3" from="cOrigem"
        to="cDestino" />
    <flow id="C_truck9" type="truck9" begin="0" end="3200" departLane="best" departPos="last" number="2" from="cOrigem"
        to="cDestino" />
    <flow id="C_car" type="car" begin="0" end="3200" departLane="best" departPos="last" number="694" from="cOrigem"
        to="cDestino" />
    <flow id="C_motorcycle" type="motorcycle" begin="0" end="3200" departLane="best" departPos="last" number="602"
        from="cOrigem" to="cDestino" />
    <flow id="C_undefined" type="undefined" begin="0" end="3200" departLane="best" departPos="last" number="16"
        from="cOrigem" to="cDestino" />

    <flow id="C_to_entradaufal" type="car" begin="0" end="3200" departLane="best" departPos="last" number="200"
        from="cOrigem" to="entradaufal" />
    <flow id="C_to_inter2Destino" type="car" begin="0" end="3200" departLane="best" departPos="last" number="20"
        from="cOrigem" to="inter2Destino" />

    <!-- SENTIDO D -->
    <flow id="D_bus2" type="bus2" begin="0" end="3200" departLane="best" departPos="last" number="115" from="dOrigem"
        to="dDestino" />
    <flow id="D_bus3" type="bus3" begin="0" end="3200" departLane="best" departPos="last" number="17" from="dOrigem"
        to="dDestino" />
    <flow id="D_truck4" type="truck4" begin="0" end="3200" departLane="best" departPos="last" number="3" from="dOrigem"
        to="dDestino" />
    <flow id="D_truck5" type="truck5" begin="0" end="3200" departLane="best" departPos="last" number="6" from="dOrigem"
        to="dDestino" />
    <flow id="D_truck6" type="truck6" begin="0" end="3200" departLane="best" departPos="last" number="5" from="dOrigem"
        to="dDestino" />
    <flow id="D_car" type="car" begin="0" end="3200" departLane="best" departPos="last" number="603" from="dOrigem"
        to="dDestino" />
    <flow id="D_motorcycle" type="motorcycle" begin="0" end="3200" departLane="best" departPos="last" number="132"
        from="dOrigem" to="dDestino" />
    <flow id="D_undefined" type="undefined" begin="0" end="3200" departLane="best" departPos="last" number="6"
        from="dOrigem" to="dDestino" />

    <flow id="D_to_inter2Destino" type="car" begin="0" end="3200" departLane="best" departPos="last" number="20"
        from="dOrigem" to="inter2Destino" />

    <!-- UFAL -->
    <flow id="saida_ufal_to_C" type="car" begin="0" end="3200" number="200" departLane="best" departPos="last"
        from="saidaufal" to="cDestino" />
    <flow id="saida_ufal_to_D" type="car" begin="0" end="3200" number="200" departLane="best" departPos="last"
        from="saidaufal" to="dDestino" />

    <flow id="saida_ufal_to_inter2Destino" type="car" begin="0" end="3200" departLane="best" departPos="last"
        number="25" from="saidaufal" to="inter2Destino" />

    <!-- Inter1 -->
    <flow id="inter1Origem_to_cDestino" type="car" begin="0" end="3200" departLane="best" departPos="last" number="100"
        from="inter1Origem" to="cDestino" />
    <flow id="inter1Origem_to_dDestino" type="car" begin="0" end="3200" departLane="best" departPos="last" number="100"
        from="inter1Origem" to="dDestino" />

    <flow id="inter1Origem_to_inter2Destino" type="car" begin="0" end="3200" departLane="best" departPos="last"
        number="25" from="inter1Origem" to="inter2Destino" />

</trips>